@<TRIPOS>MOLECULE
*****
 35 40 0 0 0
SMALL
GASTEIGER

@<TRIPOS>ATOM
      1 C         139.2604  139.3305  163.9570 C.3     1  UNL1        0.1534
      2 C         140.5988  139.0696  163.3321 C.3     1  UNL1        0.1067
      3 N         140.7018  138.8205  161.8565 N.3     1  UNL1       -0.2665
      4 C         142.0402  138.5596  161.2315 C.3     1  UNL1        0.0940
      5 C         142.1432  138.3104  159.7560 C.3     1  UNL1        0.1107
      6 N         140.9077  138.3221  158.9054 N.am    1  UNL1       -0.2764
      7 C         141.0107  138.0729  157.4298 C.2     1  UNL1        0.2301
      8 O         139.7753  138.0846  156.5792 O.2     1  UNL1       -0.2745
      9 C         139.5693  138.5829  159.5303 C.3     1  UNL1        0.1119
     10 C         139.4663  138.8321  161.0059 C.3     1  UNL1        0.1075
     11 C         138.1279  139.0930  161.6308 C.3     1  UNL1        0.1601
     12 O         138.0250  139.3422  163.1064 O.3     1  UNL1       -0.3489
     13 O         137.8708  139.5450  170.6855 O.2     1  UNL1       -0.2449
     14 C         138.8483  140.3272  169.8593 C.2     1  UNL1        0.3409
     15 O         139.7228  141.3584  170.5086 O.3     1  UNL1       -0.4451
     16 C         140.7004  142.1406  169.6824 C.3     1  UNL1        0.2134
     17 C         140.8034  141.8914  168.2068 C.3     1  UNL1        0.0740
     18 C         139.9289  140.8601  167.5575 C.ar    1  UNL1       -0.0124
     19 C         140.0319  140.6110  166.0819 C.ar    1  UNL1       -0.0058
     20 C         139.1574  139.5797  165.4326 C.ar    1  UNL1        0.0056
     21 C         138.1799  138.7975  166.2588 C.ar    1  UNL1       -0.0017
     22 C         138.0768  139.0467  167.7344 C.ar    1  UNL1        0.0059
     23 C         138.9514  140.0780  168.3838 C.ar    1  UNL1        0.0718
     24 C         142.3492  137.8121  156.8048 C.3     1  UNL1        0.1116
     25 C         142.7420  136.4139  156.4295 C.ar    1  UNL1       -0.0130
     26 C         142.6356  135.9623  155.0031 C.ar    1  UNL1       -0.0022
     27 C         143.0284  134.5641  154.6278 C.ar    1  UNL1        0.0190
     28 C         143.5276  133.6176  155.6789 C.ar    1  UNL1        0.0862
     29 C         143.6340  134.0692  157.1053 C.ar    1  UNL1        0.0190
     30 C         143.2411  135.4674  157.4807 C.ar    1  UNL1       -0.0022
     31 N         143.9204  132.2195  155.3037 N.ar    1  UNL1       -0.1886
     32 C         144.8413  131.3243  156.0787 C.ar    1  UNL1        0.2258
     33 N         144.9514  130.0226  155.3415 N.ar    1  UNL1       -0.1045
     34 N         144.0985  130.1133  154.1108 N.ar    1  UNL1       -0.0222
     35 N         143.4613  131.4710  154.0874 N.ar    1  UNL1       -0.0385
@<TRIPOS>BOND
     1    13    14    2
     2    14    15    1
     3    15    16    1
     4    16    17    1
     5    17    18    1
     6    18    19   ar
     7    19    20   ar
     8     1    20    1
     9     1     2    1
    10     2     3    1
    11     3     4    1
    12     4     5    1
    13     5     6    1
    14     6     7   am
    15     7     8    2
    16     7    24    1
    17    24    25    1
    18    25    26   ar
    19    26    27   ar
    20    27    28   ar
    21    28    31    1
    22    31    32   ar
    23    32    33   ar
    24    33    34   ar
    25    34    35   ar
    26    28    29   ar
    27    29    30   ar
    28     6     9    1
    29    10     9    1
    30    10    11    1
    31    11    12    1
    32    20    21   ar
    33    21    22   ar
    34    22    23   ar
    35    23    14    1
    36    23    18   ar
    37    12     1    1
    38    10     3    1
    39    30    25   ar
    40    35    31   ar
@<TRIPOS>MOLECULE
*****
 35 40 0 0 0
SMALL
GASTEIGER

@<TRIPOS>ATOM
      1 C         141.2795  140.2453  164.3777 C.3     1  UNL1        0.1534
      2 C         140.5331  139.4678  163.3345 C.3     1  UNL1        0.1067
      3 N         141.1039  139.3241  161.9548 N.3     1  UNL1       -0.2665
      4 C         140.3575  138.5466  160.9115 C.3     1  UNL1        0.0940
      5 C         140.9283  138.4029  159.5319 C.3     1  UNL1        0.1107
      6 N         142.2455  139.0367  159.1954 N.am    1  UNL1       -0.2764
      7 C         142.8164  138.8930  157.8158 C.2     1  UNL1        0.2301
      8 O         144.1336  139.5268  157.4794 O.2     1  UNL1       -0.2745
      9 C         142.9920  139.8142  160.2386 C.3     1  UNL1        0.1119
     10 C         142.4211  139.9579  161.6184 C.3     1  UNL1        0.1075
     11 C         143.1676  140.7354  162.6616 C.3     1  UNL1        0.1601
     12 O         142.5967  140.8791  164.0412 O.3     1  UNL1       -0.3489
     13 O         138.0382  139.7928  170.4225 O.2     1  UNL1       -0.2449
     14 C         138.9962  140.8202  169.8964 C.2     1  UNL1        0.3409
     15 O         139.3835  141.9912  170.7500 O.3     1  UNL1       -0.4451
     16 C         140.3415  143.0185  170.2240 C.3     1  UNL1        0.2134
     17 C         140.9123  142.8749  168.8443 C.3     1  UNL1        0.0740
     18 C         140.5251  141.7038  167.9907 C.ar    1  UNL1       -0.0124
     19 C         141.0959  141.5601  166.6110 C.ar    1  UNL1       -0.0058
     20 C         140.7087  140.3891  165.7574 C.ar    1  UNL1        0.0056
     21 C         139.7506  139.3617  166.2834 C.ar    1  UNL1       -0.0017
     22 C         139.1798  139.5054  167.6631 C.ar    1  UNL1        0.0059
     23 C         139.5671  140.6765  168.5168 C.ar    1  UNL1        0.0718
     24 C         142.0699  138.1155  156.7725 C.3     1  UNL1        0.1116
     25 C         142.5088  136.7263  156.4154 C.ar    1  UNL1       -0.0130
     26 C         143.0629  135.8194  157.4741 C.ar    1  UNL1       -0.0022
     27 C         143.5017  134.4302  157.1170 C.ar    1  UNL1        0.0190
     28 C         143.3866  133.9479  155.7014 C.ar    1  UNL1        0.0862
     29 C         142.8326  134.8547  154.6428 C.ar    1  UNL1        0.0190
     30 C         142.3937  136.2440  154.9998 C.ar    1  UNL1       -0.0022
     31 N         143.8255  132.5587  155.3443 N.ar    1  UNL1       -0.1886
     32 C         144.7502  131.6925  156.1472 C.ar    1  UNL1        0.2258
     33 N         144.9130  130.3903  155.4208 N.ar    1  UNL1       -0.1045
     34 N         144.0888  130.4517  154.1689 N.ar    1  UNL1       -0.0222
     35 N         143.4167  131.7918  154.1217 N.ar    1  UNL1       -0.0385
@<TRIPOS>BOND
     1    13    14    2
     2    14    15    1
     3    15    16    1
     4    16    17    1
     5    17    18    1
     6    18    19   ar
     7    19    20   ar
     8     1    20    1
     9     1     2    1
    10     2     3    1
    11     3     4    1
    12     4     5    1
    13     5     6    1
    14     6     7   am
    15     7     8    2
    16     7    24    1
    17    24    25    1
    18    25    26   ar
    19    26    27   ar
    20    27    28   ar
    21    28    31    1
    22    31    32   ar
    23    32    33   ar
    24    33    34   ar
    25    34    35   ar
    26    28    29   ar
    27    29    30   ar
    28     6     9    1
    29    10     9    1
    30    10    11    1
    31    11    12    1
    32    20    21   ar
    33    21    22   ar
    34    22    23   ar
    35    23    14    1
    36    23    18   ar
    37    12     1    1
    38    10     3    1
    39    30    25   ar
    40    35    31   ar
@<TRIPOS>MOLECULE
*****
 35 40 0 0 0
SMALL
GASTEIGER

@<TRIPOS>ATOM
      1 C         142.5395  137.4329  157.7729 C.3     1  UNL1        0.1534
      2 C         143.0622  137.1398  159.1480 C.3     1  UNL1        0.1067
      3 N         143.2505  138.2559  160.1324 N.3     1  UNL1       -0.2665
      4 C         143.7732  137.9629  161.5075 C.3     1  UNL1        0.0940
      5 C         143.9614  139.0789  162.4919 C.3     1  UNL1        0.1107
      6 N         143.6270  140.4880  162.1011 N.am    1  UNL1       -0.2764
      7 C         143.8153  141.6040  163.0855 C.2     1  UNL1        0.2301
      8 O         143.4808  143.0131  162.6948 O.2     1  UNL1       -0.2745
      9 C         143.1043  140.7810  160.7261 C.3     1  UNL1        0.1119
     10 C         142.9160  139.6649  159.7416 C.3     1  UNL1        0.1075
     11 C         142.3934  139.9580  158.3666 C.3     1  UNL1        0.1601
     12 O         142.2051  138.8420  157.3822 O.3     1  UNL1       -0.3489
     13 O         140.7072  133.0584  152.7973 O.2     1  UNL1       -0.2449
     14 C         141.7863  132.9688  153.8353 C.2     1  UNL1        0.3409
     15 O         142.6772  131.7633  153.8888 O.3     1  UNL1       -0.4451
     16 C         143.7564  131.6737  154.9268 C.3     1  UNL1        0.2134
     17 C         143.9447  132.7896  155.9112 C.3     1  UNL1        0.0740
     18 C         143.0538  133.9952  155.8576 C.ar    1  UNL1       -0.0124
     19 C         143.2421  135.1113  156.8421 C.ar    1  UNL1       -0.0058
     20 C         142.3512  136.3168  156.7885 C.ar    1  UNL1        0.0056
     21 C         141.2721  136.4064  155.7505 C.ar    1  UNL1       -0.0017
     22 C         141.0838  135.2904  154.7661 C.ar    1  UNL1        0.0059
     23 C         141.9747  134.0848  154.8197 C.ar    1  UNL1        0.0718
     24 C         144.3380  141.3110  164.4607 C.3     1  UNL1        0.1116
     25 C         143.3822  141.0346  165.5832 C.ar    1  UNL1       -0.0130
     26 C         142.8192  142.1701  166.3856 C.ar    1  UNL1       -0.0022
     27 C         141.8634  141.8937  167.5081 C.ar    1  UNL1        0.0190
     28 C         141.4706  140.4819  167.8282 C.ar    1  UNL1        0.0862
     29 C         142.0335  139.3465  167.0259 C.ar    1  UNL1        0.0190
     30 C         142.9893  139.6228  165.9033 C.ar    1  UNL1       -0.0022
     31 N         140.5148  140.2055  168.9508 N.ar    1  UNL1       -0.1886
     32 C         140.8625  140.1377  170.4083 C.ar    1  UNL1        0.2258
     33 N         139.6061  139.8387  171.1712 N.ar    1  UNL1       -0.1045
     34 N         138.4818  139.7218  170.1851 N.ar    1  UNL1       -0.0222
     35 N         139.0434  139.9484  168.8128 N.ar    1  UNL1       -0.0385
@<TRIPOS>BOND
     1    13    14    2
     2    14    15    1
     3    15    16    1
     4    16    17    1
     5    17    18    1
     6    18    19   ar
     7    19    20   ar
     8     1    20    1
     9     1     2    1
    10     2     3    1
    11     3     4    1
    12     4     5    1
    13     5     6    1
    14     6     7   am
    15     7     8    2
    16     7    24    1
    17    24    25    1
    18    25    26   ar
    19    26    27   ar
    20    27    28   ar
    21    28    31    1
    22    31    32   ar
    23    32    33   ar
    24    33    34   ar
    25    34    35   ar
    26    28    29   ar
    27    29    30   ar
    28     6     9    1
    29    10     9    1
    30    10    11    1
    31    11    12    1
    32    20    21   ar
    33    21    22   ar
    34    22    23   ar
    35    23    14    1
    36    23    18   ar
    37    12     1    1
    38    10     3    1
    39    30    25   ar
    40    35    31   ar
@<TRIPOS>MOLECULE
*****
 35 40 0 0 0
SMALL
GASTEIGER

@<TRIPOS>ATOM
      1 C         139.9628  140.5479  164.3877 C.3     1  UNL1        0.1534
      2 C         141.2081  140.3832  163.5680 C.3     1  UNL1        0.1067
      3 N         141.1261  139.8006  162.1883 N.3     1  UNL1       -0.2665
      4 C         142.3715  139.6359  161.3684 C.3     1  UNL1        0.0940
      5 C         142.2895  139.0532  159.9887 C.3     1  UNL1        0.1107
      6 N         140.9622  138.6353  159.4287 N.am    1  UNL1       -0.2764
      7 C         140.8803  138.0526  158.0489 C.2     1  UNL1        0.2301
      8 O         139.5530  137.6346  157.4889 O.2     1  UNL1       -0.2745
      9 C         139.7169  138.7999  160.2484 C.3     1  UNL1        0.1119
     10 C         139.7988  139.3826  161.6282 C.3     1  UNL1        0.1075
     11 C         138.5535  139.5473  162.4480 C.3     1  UNL1        0.1601
     12 O         138.6355  140.1300  163.8277 O.3     1  UNL1       -0.3489
     13 O         140.2535  144.3662  170.0962 O.2     1  UNL1       -0.2449
     14 C         140.2905  142.8787  169.9068 C.2     1  UNL1        0.3409
     15 O         140.4093  141.9738  171.0972 O.3     1  UNL1       -0.4451
     16 C         140.4463  140.4863  170.9079 C.3     1  UNL1        0.2134
     17 C         140.3644  139.9036  169.5282 C.3     1  UNL1        0.0740
     18 C         140.2455  140.8085  168.3378 C.ar    1  UNL1       -0.0124
     19 C         140.1636  140.2258  166.9579 C.ar    1  UNL1       -0.0058
     20 C         140.0447  141.1306  165.7676 C.ar    1  UNL1        0.0056
     21 C         140.0078  142.6182  165.9569 C.ar    1  UNL1       -0.0017
     22 C         140.0897  143.2009  167.3366 C.ar    1  UNL1        0.0059
     23 C         140.2085  142.2960  168.5271 C.ar    1  UNL1        0.0718
     24 C         142.1256  137.8879  157.2291 C.3     1  UNL1        0.1116
     25 C         142.5135  136.5319  156.7185 C.ar    1  UNL1       -0.0130
     26 C         142.2164  136.1522  155.2980 C.ar    1  UNL1       -0.0022
     27 C         142.6042  134.7962  154.7874 C.ar    1  UNL1        0.0190
     28 C         143.2892  133.8199  155.6971 C.ar    1  UNL1        0.0862
     29 C         143.5863  134.1995  157.1175 C.ar    1  UNL1        0.0190
     30 C         143.1985  135.5556  157.6282 C.ar    1  UNL1       -0.0022
     31 N         143.6771  132.4639  155.1864 N.ar    1  UNL1       -0.1886
     32 C         143.1584  131.8094  153.9403 C.ar    1  UNL1        0.2258
     33 N         143.8125  130.4653  153.8160 N.ar    1  UNL1       -0.1045
     34 N         144.7355  130.2890  154.9852 N.ar    1  UNL1       -0.0222
     35 N         144.6518  131.5241  155.8322 N.ar    1  UNL1       -0.0385
@<TRIPOS>BOND
     1    13    14    2
     2    14    15    1
     3    15    16    1
     4    16    17    1
     5    17    18    1
     6    18    19   ar
     7    19    20   ar
     8     1    20    1
     9     1     2    1
    10     2     3    1
    11     3     4    1
    12     4     5    1
    13     5     6    1
    14     6     7   am
    15     7     8    2
    16     7    24    1
    17    24    25    1
    18    25    26   ar
    19    26    27   ar
    20    27    28   ar
    21    28    31    1
    22    31    32   ar
    23    32    33   ar
    24    33    34   ar
    25    34    35   ar
    26    28    29   ar
    27    29    30   ar
    28     6     9    1
    29    10     9    1
    30    10    11    1
    31    11    12    1
    32    20    21   ar
    33    21    22   ar
    34    22    23   ar
    35    23    14    1
    36    23    18   ar
    37    12     1    1
    38    10     3    1
    39    30    25   ar
    40    35    31   ar
@<TRIPOS>MOLECULE
*****
 35 40 0 0 0
SMALL
GASTEIGER

@<TRIPOS>ATOM
      1 C         143.6212  140.9304  157.9350 C.3     1  UNL1        0.1534
      2 C         142.6929  141.7416  158.7895 C.3     1  UNL1        0.1067
      3 N         141.9370  141.0861  159.9070 N.3     1  UNL1       -0.2665
      4 C         141.0086  141.8973  160.7616 C.3     1  UNL1        0.0940
      5 C         140.2528  141.2418  161.8791 C.3     1  UNL1        0.1107
      6 N         140.4253  139.7752  162.1423 N.am    1  UNL1       -0.2764
      7 C         139.6695  139.1197  163.2599 C.2     1  UNL1        0.2301
      8 O         139.8420  137.6531  163.5230 O.2     1  UNL1       -0.2745
      9 C         141.3536  138.9640  161.2878 C.3     1  UNL1        0.1119
     10 C         142.1095  139.6195  160.1702 C.3     1  UNL1        0.1075
     11 C         143.0379  138.8083  159.3157 C.3     1  UNL1        0.1601
     12 O         143.7937  139.4638  158.1981 O.3     1  UNL1       -0.3489
     13 O         145.9265  144.4435  152.4949 O.2     1  UNL1       -0.2449
     14 C         146.6446  143.5522  153.4645 C.2     1  UNL1        0.3409
     15 O         148.1185  143.3164  153.3164 O.3     1  UNL1       -0.4451
     16 C         148.8366  142.4251  154.2859 C.3     1  UNL1        0.2134
     17 C         148.0808  141.7697  155.4035 C.3     1  UNL1        0.0740
     18 C         146.6069  142.0055  155.5516 C.ar    1  UNL1       -0.0124
     19 C         145.8510  141.3500  156.6693 C.ar    1  UNL1       -0.0058
     20 C         144.3771  141.5859  156.8173 C.ar    1  UNL1        0.0056
     21 C         143.6590  142.4771  155.8478 C.ar    1  UNL1       -0.0017
     22 C         144.4148  143.1326  154.7302 C.ar    1  UNL1        0.0059
     23 C         145.8888  142.8968  154.5821 C.ar    1  UNL1        0.0718
     24 C         138.7411  139.9309  164.1144 C.3     1  UNL1        0.1116
     25 C         139.1565  140.3362  165.4975 C.ar    1  UNL1       -0.0130
     26 C         139.8895  141.6272  165.7125 C.ar    1  UNL1       -0.0022
     27 C         140.3049  142.0325  167.0956 C.ar    1  UNL1        0.0190
     28 C         139.9873  141.1468  168.2639 C.ar    1  UNL1        0.0862
     29 C         139.2543  139.8559  168.0490 C.ar    1  UNL1        0.0190
     30 C         138.8389  139.4506  166.6658 C.ar    1  UNL1       -0.0022
     31 N         140.4027  141.5521  169.6470 N.ar    1  UNL1       -0.1886
     32 C         141.8103  141.6178  170.1612 C.ar    1  UNL1        0.2258
     33 N         141.7610  142.0691  171.5908 N.ar    1  UNL1       -0.1045
     34 N         140.3229  142.2824  171.9602 N.ar    1  UNL1       -0.0222
     35 N         139.4834  141.9629  170.7590 N.ar    1  UNL1       -0.0385
@<TRIPOS>BOND
     1    13    14    2
     2    14    15    1
     3    15    16    1
     4    16    17    1
     5    17    18    1
     6    18    19   ar
     7    19    20   ar
     8     1    20    1
     9     1     2    1
    10     2     3    1
    11     3     4    1
    12     4     5    1
    13     5     6    1
    14     6     7   am
    15     7     8    2
    16     7    24    1
    17    24    25    1
    18    25    26   ar
    19    26    27   ar
    20    27    28   ar
    21    28    31    1
    22    31    32   ar
    23    32    33   ar
    24    33    34   ar
    25    34    35   ar
    26    28    29   ar
    27    29    30   ar
    28     6     9    1
    29    10     9    1
    30    10    11    1
    31    11    12    1
    32    20    21   ar
    33    21    22   ar
    34    22    23   ar
    35    23    14    1
    36    23    18   ar
    37    12     1    1
    38    10     3    1
    39    30    25   ar
    40    35    31   ar
@<TRIPOS>MOLECULE
*****
 35 40 0 0 0
SMALL
GASTEIGER

@<TRIPOS>ATOM
      1 C         142.5270  143.4986  158.5161 C.3     1  UNL1        0.1534
      2 C         141.5525  142.8201  159.4326 C.3     1  UNL1        0.1067
      3 N         142.0525  141.9539  160.5504 N.3     1  UNL1       -0.2665
      4 C         141.0780  141.2754  161.4669 C.3     1  UNL1        0.0940
      5 C         141.5780  140.4091  162.5847 C.3     1  UNL1        0.1107
      6 N         143.0525  140.2212  162.7860 N.am    1  UNL1       -0.2764
      7 C         143.5526  139.3550  163.9038 C.2     1  UNL1        0.2301
      8 O         145.0271  139.1671  164.1051 O.2     1  UNL1       -0.2745
      9 C         144.0270  140.8997  161.8695 C.3     1  UNL1        0.1119
     10 C         143.5270  141.7660  160.7517 C.3     1  UNL1        0.1075
     11 C         144.5015  142.4445  159.8352 C.3     1  UNL1        0.1601
     12 O         144.0015  143.3108  158.7174 O.3     1  UNL1       -0.3489
     13 O         141.1270  146.8416  152.6753 O.2     1  UNL1       -0.2449
     14 C         140.5271  146.9638  154.0447 C.2     1  UNL1        0.3409
     15 O         139.4273  147.9523  154.2963 O.3     1  UNL1       -0.4451
     16 C         138.8275  148.0745  155.6657 C.3     1  UNL1        0.2134
     17 C         139.3274  147.2082  156.7835 C.3     1  UNL1        0.0740
     18 C         140.4272  146.2197  156.5319 C.ar    1  UNL1       -0.0124
     19 C         140.9272  145.3534  157.6498 C.ar    1  UNL1       -0.0058
     20 C         142.0270  144.3649  157.3982 C.ar    1  UNL1        0.0056
     21 C         142.6269  144.2427  156.0288 C.ar    1  UNL1       -0.0017
     22 C         142.1269  145.1090  154.9110 C.ar    1  UNL1        0.0059
     23 C         141.0271  146.0975  155.1625 C.ar    1  UNL1        0.0718
     24 C         142.5780  138.6764  164.8204 C.3     1  UNL1        0.1116
     25 C         142.1311  139.3599  166.0786 C.ar    1  UNL1       -0.0130
     26 C         140.9064  140.2259  166.0673 C.ar    1  UNL1       -0.0022
     27 C         140.4595  140.9094  167.3255 C.ar    1  UNL1        0.0190
     28 C         141.2373  140.7268  168.5950 C.ar    1  UNL1        0.0862
     29 C         142.4619  139.8609  168.6064 C.ar    1  UNL1        0.0190
     30 C         142.9089  139.1774  167.3481 C.ar    1  UNL1       -0.0022
     31 N         140.7903  141.4103  169.8532 N.ar    1  UNL1       -0.1886
     32 C         139.7831  142.5181  169.9449 C.ar    1  UNL1        0.2258
     33 N         139.6425  142.8984  171.3890 N.ar    1  UNL1       -0.1045
     34 N         140.5628  142.0256  172.1899 N.ar    1  UNL1       -0.0222
     35 N         141.2722  141.1060  171.2408 N.ar    1  UNL1       -0.0385
@<TRIPOS>BOND
     1    13    14    2
     2    14    15    1
     3    15    16    1
     4    16    17    1
     5    17    18    1
     6    18    19   ar
     7    19    20   ar
     8     1    20    1
     9     1     2    1
    10     2     3    1
    11     3     4    1
    12     4     5    1
    13     5     6    1
    14     6     7   am
    15     7     8    2
    16     7    24    1
    17    24    25    1
    18    25    26   ar
    19    26    27   ar
    20    27    28   ar
    21    28    31    1
    22    31    32   ar
    23    32    33   ar
    24    33    34   ar
    25    34    35   ar
    26    28    29   ar
    27    29    30   ar
    28     6     9    1
    29    10     9    1
    30    10    11    1
    31    11    12    1
    32    20    21   ar
    33    21    22   ar
    34    22    23   ar
    35    23    14    1
    36    23    18   ar
    37    12     1    1
    38    10     3    1
    39    30    25   ar
    40    35    31   ar
@<TRIPOS>MOLECULE
*****
 35 40 0 0 0
SMALL
GASTEIGER

@<TRIPOS>ATOM
      1 C         143.3275  140.6532  164.0144 C.3     1  UNL1        0.1534
      2 C         142.3712  139.6911  163.3744 C.3     1  UNL1        0.1067
      3 N         142.5010  139.3626  161.9166 N.3     1  UNL1       -0.2665
      4 C         141.5447  138.4005  161.2764 C.3     1  UNL1        0.0940
      5 C         141.6746  138.0720  159.8187 C.3     1  UNL1        0.1107
      6 N         142.7608  138.7057  159.0009 N.am    1  UNL1       -0.2764
      7 C         142.8906  138.3772  157.5431 C.2     1  UNL1        0.2301
      8 O         143.9768  139.0109  156.7254 O.2     1  UNL1       -0.2745
      9 C         143.7171  139.6678  159.6410 C.3     1  UNL1        0.1119
     10 C         143.5872  139.9963  161.0989 C.3     1  UNL1        0.1075
     11 C         144.5435  140.9584  161.7389 C.3     1  UNL1        0.1601
     12 O         144.4137  141.2869  163.1967 O.3     1  UNL1       -0.3489
     13 O         143.3115  143.2810  170.3662 O.2     1  UNL1       -0.2449
     14 C         142.8082  141.9673  169.8457 C.2     1  UNL1        0.3409
     15 O         142.1751  140.9822  170.7830 O.3     1  UNL1       -0.4451
     16 C         141.6718  139.6685  170.2626 C.3     1  UNL1        0.2134
     17 C         141.8016  139.3399  168.8048 C.3     1  UNL1        0.0740
     18 C         142.4347  140.3251  167.8675 C.ar    1  UNL1       -0.0124
     19 C         142.5645  139.9966  166.4096 C.ar    1  UNL1       -0.0058
     20 C         143.1976  140.9817  165.4723 C.ar    1  UNL1        0.0056
     21 C         143.7009  142.2954  165.9928 C.ar    1  UNL1       -0.0017
     22 C         143.5711  142.6240  167.4506 C.ar    1  UNL1        0.0059
     23 C         142.9380  141.6388  168.3880 C.ar    1  UNL1        0.0718
     24 C         141.9343  137.4150  156.9030 C.3     1  UNL1        0.1116
     25 C         142.3408  135.9880  156.6831 C.ar    1  UNL1       -0.0130
     26 C         141.7346  135.2001  155.5598 C.ar    1  UNL1       -0.0022
     27 C         142.1411  133.7731  155.3399 C.ar    1  UNL1        0.0190
     28 C         143.1538  133.1340  156.2433 C.ar    1  UNL1        0.0862
     29 C         143.7599  133.9219  157.3665 C.ar    1  UNL1        0.0190
     30 C         143.3535  135.3489  157.5865 C.ar    1  UNL1       -0.0022
     31 N         143.5603  131.7070  156.0234 N.ar    1  UNL1       -0.1886
     32 C         142.6392  130.5236  155.9856 C.ar    1  UNL1        0.2258
     33 N         143.4689  129.2980  155.7415 N.ar    1  UNL1       -0.1045
     34 N         144.9027  129.7240  155.6285 N.ar    1  UNL1       -0.0222
     35 N         144.9593  131.2127  155.8027 N.ar    1  UNL1       -0.0385
@<TRIPOS>BOND
     1    13    14    2
     2    14    15    1
     3    15    16    1
     4    16    17    1
     5    17    18    1
     6    18    19   ar
     7    19    20   ar
     8     1    20    1
     9     1     2    1
    10     2     3    1
    11     3     4    1
    12     4     5    1
    13     5     6    1
    14     6     7   am
    15     7     8    2
    16     7    24    1
    17    24    25    1
    18    25    26   ar
    19    26    27   ar
    20    27    28   ar
    21    28    31    1
    22    31    32   ar
    23    32    33   ar
    24    33    34   ar
    25    34    35   ar
    26    28    29   ar
    27    29    30   ar
    28     6     9    1
    29    10     9    1
    30    10    11    1
    31    11    12    1
    32    20    21   ar
    33    21    22   ar
    34    22    23   ar
    35    23    14    1
    36    23    18   ar
    37    12     1    1
    38    10     3    1
    39    30    25   ar
    40    35    31   ar
@<TRIPOS>MOLECULE
*****
 35 40 0 0 0
SMALL
GASTEIGER

@<TRIPOS>ATOM
      1 C         142.5789  138.1231  158.0351 C.3     1  UNL1        0.1534
      2 C         141.6208  138.4245  159.1492 C.3     1  UNL1        0.1067
      3 N         141.7776  139.6806  159.9539 N.3     1  UNL1       -0.2665
      4 C         140.8195  139.9821  161.0681 C.3     1  UNL1        0.0940
      5 C         140.9763  141.2381  161.8728 C.3     1  UNL1        0.1107
      6 N         142.0912  142.1928  161.5635 N.am    1  UNL1       -0.2764
      7 C         142.2480  143.4489  162.3682 C.2     1  UNL1        0.2301
      8 O         143.3628  144.4036  162.0588 O.2     1  UNL1       -0.2745
      9 C         143.0493  141.8914  160.4494 C.3     1  UNL1        0.1119
     10 C         142.8925  140.6353  159.6446 C.3     1  UNL1        0.1075
     11 C         143.8506  140.3338  158.5305 C.3     1  UNL1        0.1601
     12 O         143.6938  139.0778  157.7258 O.3     1  UNL1       -0.3489
     13 O         140.9020  133.0187  153.7476 O.2     1  UNL1       -0.2449
     14 C         141.9518  133.0987  154.8160 C.2     1  UNL1        0.3409
     15 O         142.8448  131.9227  155.0796 O.3     1  UNL1       -0.4451
     16 C         143.8946  132.0028  156.1481 C.3     1  UNL1        0.2134
     17 C         144.0514  133.2589  156.9528 C.3     1  UNL1        0.0740
     18 C         143.1584  134.4348  156.6892 C.ar    1  UNL1       -0.0124
     19 C         143.3152  135.6910  157.4940 C.ar    1  UNL1       -0.0058
     20 C         142.4222  136.8670  157.2303 C.ar    1  UNL1        0.0056
     21 C         141.3724  136.7869  156.1619 C.ar    1  UNL1       -0.0017
     22 C         141.2156  135.5308  155.3572 C.ar    1  UNL1        0.0059
     23 C         142.1086  134.3548  155.6208 C.ar    1  UNL1        0.0718
     24 C         141.2899  143.7504  163.4823 C.3     1  UNL1        0.1116
     25 C         141.5099  143.1565  164.8420 C.ar    1  UNL1       -0.0130
     26 C         142.8599  142.6205  165.2169 C.ar    1  UNL1       -0.0022
     27 C         143.0799  142.0266  166.5765 C.ar    1  UNL1        0.0190
     28 C         141.9500  141.9686  167.5615 C.ar    1  UNL1        0.0862
     29 C         140.6001  142.5046  167.1867 C.ar    1  UNL1        0.0190
     30 C         140.3800  143.0985  165.8269 C.ar    1  UNL1       -0.0022
     31 N         142.1700  141.3747  168.9212 N.ar    1  UNL1       -0.1886
     32 C         141.5524  141.8517  170.2021 C.ar    1  UNL1        0.2258
     33 N         142.0469  140.9713  171.3113 N.ar    1  UNL1       -0.1045
     34 N         142.9703  139.9501  170.7158 N.ar    1  UNL1       -0.0222
     35 N         143.0464  140.1994  169.2387 N.ar    1  UNL1       -0.0385
@<TRIPOS>BOND
     1    13    14    2
     2    14    15    1
     3    15    16    1
     4    16    17    1
     5    17    18    1
     6    18    19   ar
     7    19    20   ar
     8     1    20    1
     9     1     2    1
    10     2     3    1
    11     3     4    1
    12     4     5    1
    13     5     6    1
    14     6     7   am
    15     7     8    2
    16     7    24    1
    17    24    25    1
    18    25    26   ar
    19    26    27   ar
    20    27    28   ar
    21    28    31    1
    22    31    32   ar
    23    32    33   ar
    24    33    34   ar
    25    34    35   ar
    26    28    29   ar
    27    29    30   ar
    28     6     9    1
    29    10     9    1
    30    10    11    1
    31    11    12    1
    32    20    21   ar
    33    21    22   ar
    34    22    23   ar
    35    23    14    1
    36    23    18   ar
    37    12     1    1
    38    10     3    1
    39    30    25   ar
    40    35    31   ar
@<TRIPOS>MOLECULE
*****
 35 40 0 0 0
SMALL
GASTEIGER

@<TRIPOS>ATOM
      1 C         141.4103  141.9806  164.9388 C.3     1  UNL1        0.1534
      2 C         141.9141  140.9416  163.9814 C.3     1  UNL1        0.1067
      3 N         142.2635  141.3252  162.5741 N.3     1  UNL1       -0.2665
      4 C         142.7674  140.2862  161.6166 C.3     1  UNL1        0.0940
      5 C         143.1168  140.6698  160.2092 C.3     1  UNL1        0.1107
      6 N         142.9623  142.0924  159.7592 N.am    1  UNL1       -0.2764
      7 C         143.3117  142.4760  158.3519 C.2     1  UNL1        0.2301
      8 O         143.1572  143.8986  157.9019 O.2     1  UNL1       -0.2745
      9 C         142.4584  143.1314  160.7166 C.3     1  UNL1        0.1119
     10 C         142.1090  142.7478  162.1241 C.3     1  UNL1        0.1075
     11 C         141.6052  143.7867  163.0815 C.3     1  UNL1        0.1601
     12 O         141.2558  143.4031  164.4889 O.3     1  UNL1       -0.3489
     13 O         138.9027  139.4707  170.8264 O.2     1  UNL1       -0.2449
     14 C         140.0127  140.4462  170.5685 C.2     1  UNL1        0.3409
     15 O         140.7732  141.0381  171.7179 O.3     1  UNL1       -0.4451
     16 C         141.8831  142.0136  171.4600 C.3     1  UNL1        0.2134
     17 C         142.2325  142.3972  170.0526 C.3     1  UNL1        0.0740
     18 C         141.4720  141.8053  168.9032 C.ar    1  UNL1       -0.0124
     19 C         141.8214  142.1889  167.4957 C.ar    1  UNL1       -0.0058
     20 C         141.0609  141.5970  166.3463 C.ar    1  UNL1        0.0056
     21 C         139.9510  140.6215  166.6042 C.ar    1  UNL1       -0.0017
     22 C         139.6016  140.2379  168.0116 C.ar    1  UNL1        0.0059
     23 C         140.3621  140.8298  169.1611 C.ar    1  UNL1        0.0718
     24 C         143.8155  141.4370  157.3944 C.3     1  UNL1        0.1116
     25 C         145.1328  141.6299  156.7033 C.ar    1  UNL1       -0.0130
     26 C         146.2012  142.4648  157.3449 C.ar    1  UNL1       -0.0022
     27 C         147.5184  142.6577  156.6538 C.ar    1  UNL1        0.0190
     28 C         147.7673  142.0157  155.3212 C.ar    1  UNL1        0.0862
     29 C         146.6990  141.1809  154.6796 C.ar    1  UNL1        0.0190
     30 C         145.3817  140.9879  155.3707 C.ar    1  UNL1       -0.0022
     31 N         149.0846  142.2086  154.6301 N.ar    1  UNL1       -0.1886
     32 C         150.3749  141.5320  154.9869 C.ar    1  UNL1        0.2258
     33 N         151.4306  142.0171  154.0382 N.ar    1  UNL1       -0.1045
     34 N         150.7927  142.9937  153.0950 N.ar    1  UNL1       -0.0222
     35 N         149.3429  143.1120  153.4608 N.ar    1  UNL1       -0.0385
@<TRIPOS>BOND
     1    13    14    2
     2    14    15    1
     3    15    16    1
     4    16    17    1
     5    17    18    1
     6    18    19   ar
     7    19    20   ar
     8     1    20    1
     9     1     2    1
    10     2     3    1
    11     3     4    1
    12     4     5    1
    13     5     6    1
    14     6     7   am
    15     7     8    2
    16     7    24    1
    17    24    25    1
    18    25    26   ar
    19    26    27   ar
    20    27    28   ar
    21    28    31    1
    22    31    32   ar
    23    32    33   ar
    24    33    34   ar
    25    34    35   ar
    26    28    29   ar
    27    29    30   ar
    28     6     9    1
    29    10     9    1
    30    10    11    1
    31    11    12    1
    32    20    21   ar
    33    21    22   ar
    34    22    23   ar
    35    23    14    1
    36    23    18   ar
    37    12     1    1
    38    10     3    1
    39    30    25   ar
    40    35    31   ar
