@<TRIPOS>MOLECULE
*****
 49 55 0 0 0
SMALL
GASTEIGER

@<TRIPOS>ATOM
      1 C         141.6242  141.8856  164.8954 C.3     1  UNL1        0.0236
      2 C         141.6139  140.9940  163.6892 C.3     1  UNL1        0.0257
      3 C         141.6596  141.5918  162.3142 C.3     1  UNL1        0.0940
      4 N         141.7155  143.0813  162.1455 N.am    1  UNL1       -0.2760
      5 C         141.7611  143.6791  160.7705 C.2     1  UNL1        0.2499
      6 O         141.8170  145.1685  160.6017 O.2     1  UNL1       -0.2699
      7 C         141.7257  143.9729  163.3517 C.3     1  UNL1        0.0940
      8 C         141.6801  143.3751  164.7266 C.3     1  UNL1        0.0257
      9 C         141.7508  142.7874  159.5643 C.ar    1  UNL1        0.0656
     10 C         143.0428  142.2806  158.9952 C.ar    1  UNL1        0.0276
     11 C         143.0325  141.3889  157.7891 C.ar    1  UNL1        0.1492
     12 C         141.7301  141.0040  157.1520 C.ar    1  UNL1        0.1594
     13 F         141.7198  140.1123  155.9459 F       1  UNL1       -0.2027
     14 C         140.4381  141.5108  157.7212 C.ar    1  UNL1        0.0426
     15 C         140.4485  142.4025  158.9273 C.ar    1  UNL1        0.0643
     16 CL        139.1565  142.9093  159.4964 Cl      1  UNL1       -0.0820
     17 S         144.3244  140.8821  157.2200 S.O2    1  UNL1        0.0593
     18 N         145.6165  140.3753  156.6508 N.3     1  UNL1       -0.2034
     19 O         144.5013  142.1711  156.4735 O.2     1  UNL1       -0.1531
     20 O         144.1476  139.5931  157.9664 O.2     1  UNL1       -0.1531
     21 H         146.0227  141.0868  156.0433 H       1  UNL1        0.1442
     22 H         145.4411  139.5275  156.1114 H       1  UNL1        0.1442
     23 C         141.6138  142.3114  166.3338 C.ar    1  UNL1       -0.0204
     24 C         140.3743  142.9099  166.9298 C.ar    1  UNL1       -0.0041
     25 C         140.3638  143.3356  168.3682 C.ar    1  UNL1        0.0020
     26 C         141.5931  143.1629  169.2103 C.ar    1  UNL1        0.0296
     27 C         142.8327  142.5644  168.6142 C.ar    1  UNL1        0.1398
     28 F         144.0618  142.3917  169.4563 F       1  UNL1       -0.2042
     29 C         142.8429  142.1387  167.1759 C.ar    1  UNL1        0.0254
     30 C         141.5647  140.5442  165.5637 C.3     1  UNL1        0.0215
     31 C         140.3264  139.7048  165.4521 C.3     1  UNL1        0.0723
     32 C         140.2657  139.6703  165.3115 C.3     1  UNL1        0.0893
     33 C         139.2921  140.7870  165.5465 C.3     1  UNL1        0.0386
     34 C         138.2575  141.1107  164.5097 C.3     1  UNL1        0.0594
     35 C         137.4364  141.0778  163.2548 C.3     1  UNL1        0.0174
     36 C         137.9633  139.9753  162.3849 C.3     1  UNL1        0.0174
     37 C         139.1101  139.3267  163.1021 C.3     1  UNL1        0.0594
     38 C         140.2047  138.8774  164.0398 C.3     1  UNL1        0.0386
     39 N         139.2919  140.0285  164.4154 N.3     1  UNL1       -0.2751
     40 C         142.9277  138.6073  164.6191 C.3     1  UNL1        0.0718
     41 C         142.6737  138.8046  166.0842 C.ar    1  UNL1        0.1207
     42 N         143.3652  138.6312  167.4040 N.ar    1  UNL1       -0.2309
     43 C         142.4192  139.0662  168.4837 C.ar    1  UNL1        0.0983
     44 C         142.5550  139.1167  169.9767 C.ar    1  UNL1        0.0206
     45 C         141.4145  139.6094  170.8172 C.ar    1  UNL1        0.0016
     46 C         140.1383  140.0516  170.1648 C.ar    1  UNL1        0.0016
     47 C         140.0025  140.0011  168.6718 C.ar    1  UNL1        0.0188
     48 C         141.1430  139.5084  167.8313 C.ar    1  UNL1        0.0785
     49 N         141.3003  139.3467  166.3483 N.ar    1  UNL1       -0.3167
@<TRIPOS>BOND
     1    40    41    1
     2    41    42   ar
     3    42    43   ar
     4    43    44   ar
     5    44    45   ar
     6    45    46   ar
     7    46    47   ar
     8    47    48   ar
     9    48    49   ar
    10    49    32    1
    11    32    33    1
    12    33    34    1
    13    34    35    1
    14    35    36    1
    15    36    37    1
    16    37    38    1
    17    37    39    1
    18    39    31    1
    19    31    30    1
    20    30     1    1
    21     1    23    1
    22    23    24   ar
    23    24    25   ar
    24    25    26   ar
    25    26    27   ar
    26    27    28    1
    27    27    29   ar
    28     1     2    1
    29     2     3    1
    30     3     4    1
    31     4     5   am
    32     5     6    2
    33     5     9    1
    34     9    10   ar
    35    10    11   ar
    36    11    17    1
    37    17    18    1
    38    17    19    2
    39    17    20    2
    40    11    12   ar
    41    12    13    1
    42    12    14   ar
    43    14    15   ar
    44    15    16    1
    45     4     7    1
    46     7     8    1
    47    49    41   ar
    48    38    32    1
    49     8     1    1
    50    48    43   ar
    51    39    34    1
    52    29    23   ar
    53    15     9   ar
    54    18    21    1
    55    18    22    1
@<TRIPOS>MOLECULE
*****
 49 55 0 0 0
SMALL
GASTEIGER

@<TRIPOS>ATOM
      1 C         140.4407  141.5313  161.9038 C.3     1  UNL1        0.0236
      2 C         141.1459  142.0465  163.1233 C.3     1  UNL1        0.0257
      3 C         140.9824  141.3426  164.4377 C.3     1  UNL1        0.0940
      4 N         140.1136  140.1235  164.5327 N.am    1  UNL1       -0.2760
      5 C         139.9501  139.4196  165.8472 C.2     1  UNL1        0.2499
      6 O         139.0812  138.2005  165.9421 O.2     1  UNL1       -0.2699
      7 C         139.4083  139.6083  163.3132 C.3     1  UNL1        0.0940
      8 C         139.5718  140.3122  161.9988 C.3     1  UNL1        0.0257
      9 C         140.6553  139.9348  167.0666 C.ar    1  UNL1        0.0656
     10 C         139.9443  140.8592  168.0099 C.ar    1  UNL1        0.0276
     11 C         140.6497  141.3744  169.2294 C.ar    1  UNL1        0.1492
     12 C         142.0661  140.9652  169.5055 C.ar    1  UNL1        0.1594
     13 F         142.7714  141.4804  170.7249 F       1  UNL1       -0.2027
     14 C         142.7772  140.0408  168.5622 C.ar    1  UNL1        0.0426
     15 C         142.0718  139.5256  167.3428 C.ar    1  UNL1        0.0643
     16 CL        142.7829  138.6012  166.3994 Cl      1  UNL1       -0.0820
     17 S         139.9386  142.2988  170.1727 S.O2    1  UNL1        0.0593
     18 N         139.2275  143.2233  171.1160 N.3     1  UNL1       -0.2034
     19 O         140.7056  143.4600  169.6129 O.2     1  UNL1       -0.1531
     20 O         139.1716  141.1376  170.7325 O.2     1  UNL1       -0.1531
     21 H         139.5581  144.1773  170.9709 H       1  UNL1        0.1442
     22 H         139.4175  142.9402  172.0773 H       1  UNL1        0.1442
     23 C         139.9817  141.4269  160.4795 C.ar    1  UNL1       -0.0204
     24 C         138.5659  141.7685  160.1207 C.ar    1  UNL1       -0.0041
     25 C         138.1070  141.6641  158.6964 C.ar    1  UNL1        0.0020
     26 C         139.0640  141.2180  157.6310 C.ar    1  UNL1        0.0296
     27 C         140.4798  140.8763  157.9898 C.ar    1  UNL1        0.1398
     28 F         141.4367  140.4302  156.9243 F       1  UNL1       -0.2042
     29 C         140.9386  140.9808  159.4141 C.ar    1  UNL1        0.0254
     30 C         141.1501  142.7141  161.3142 C.3     1  UNL1        0.0215
     31 C         140.7624  144.1033  161.7265 C.3     1  UNL1        0.0723
     32 C         140.7450  144.1437  161.8772 C.3     1  UNL1        0.0893
     33 C         139.2758  143.9076  161.6881 C.3     1  UNL1        0.0386
     34 C         138.3295  144.1135  162.8337 C.3     1  UNL1        0.0594
     35 C         137.7850  144.4303  164.1950 C.3     1  UNL1        0.0174
     36 C         138.9352  144.8217  165.0747 C.3     1  UNL1        0.0174
     37 C         140.1906  144.7469  164.2571 C.3     1  UNL1        0.0594
     38 C         141.2679  144.5856  163.2118 C.3     1  UNL1        0.0386
     39 N         139.8163  144.3092  162.8720 N.3     1  UNL1       -0.2751
     40 C         143.5206  143.2234  162.2575 C.3     1  UNL1        0.0718
     41 C         143.1139  143.4738  160.8356 C.ar    1  UNL1        0.1207
     42 N         143.6828  143.4090  159.4492 N.ar    1  UNL1       -0.2309
     43 C         142.6117  143.8330  158.4884 C.ar    1  UNL1        0.0983
     44 C         142.5983  143.9636  156.9942 C.ar    1  UNL1        0.0206
     45 C         141.3539  144.4211  156.2926 C.ar    1  UNL1        0.0016
     46 C         140.1231  144.7479  157.0852 C.ar    1  UNL1        0.0016
     47 C         140.1366  144.6172  158.5794 C.ar    1  UNL1        0.0188
     48 C         141.3809  144.1598  159.2810 C.ar    1  UNL1        0.0785
     49 N         141.6912  143.9378  160.7316 N.ar    1  UNL1       -0.3167
@<TRIPOS>BOND
     1    40    41    1
     2    41    42   ar
     3    42    43   ar
     4    43    44   ar
     5    44    45   ar
     6    45    46   ar
     7    46    47   ar
     8    47    48   ar
     9    48    49   ar
    10    49    32    1
    11    32    33    1
    12    33    34    1
    13    34    35    1
    14    35    36    1
    15    36    37    1
    16    37    38    1
    17    37    39    1
    18    39    31    1
    19    31    30    1
    20    30     1    1
    21     1    23    1
    22    23    24   ar
    23    24    25   ar
    24    25    26   ar
    25    26    27   ar
    26    27    28    1
    27    27    29   ar
    28     1     2    1
    29     2     3    1
    30     3     4    1
    31     4     5   am
    32     5     6    2
    33     5     9    1
    34     9    10   ar
    35    10    11   ar
    36    11    17    1
    37    17    18    1
    38    17    19    2
    39    17    20    2
    40    11    12   ar
    41    12    13    1
    42    12    14   ar
    43    14    15   ar
    44    15    16    1
    45     4     7    1
    46     7     8    1
    47    49    41   ar
    48    38    32    1
    49     8     1    1
    50    48    43   ar
    51    39    34    1
    52    29    23   ar
    53    15     9   ar
    54    18    21    1
    55    18    22    1
@<TRIPOS>MOLECULE
*****
 49 55 0 0 0
SMALL
GASTEIGER

@<TRIPOS>ATOM
      1 C         140.1559  140.8552  161.7610 C.3     1  UNL1        0.0236
      2 C         140.9718  141.4291  162.8813 C.3     1  UNL1        0.0257
      3 C         140.7895  140.9185  164.2799 C.3     1  UNL1        0.0940
      4 N         139.7914  139.8339  164.5582 N.am    1  UNL1       -0.2760
      5 C         139.6091  139.3233  165.9568 C.2     1  UNL1        0.2499
      6 O         138.6110  138.2388  166.2352 O.2     1  UNL1       -0.2699
      7 C         138.9755  139.2600  163.4380 C.3     1  UNL1        0.0940
      8 C         139.1578  139.7706  162.0394 C.3     1  UNL1        0.0257
      9 C         140.4250  139.8973  167.0770 C.ar    1  UNL1        0.0656
     10 C         139.7913  140.8326  168.0637 C.ar    1  UNL1        0.0276
     11 C         140.6073  141.4065  169.1839 C.ar    1  UNL1        0.1492
     12 C         142.0570  141.0451  169.3174 C.ar    1  UNL1        0.1594
     13 F         142.8729  141.6191  170.4376 F       1  UNL1       -0.2027
     14 C         142.6907  140.1098  168.3307 C.ar    1  UNL1        0.0426
     15 C         141.8747  139.5359  167.2105 C.ar    1  UNL1        0.0643
     16 CL        142.5084  138.6006  166.2238 Cl      1  UNL1       -0.0820
     17 S         139.9736  142.3418  170.1706 S.O2    1  UNL1        0.0593
     18 N         139.3399  143.2772  171.1573 N.3     1  UNL1       -0.2034
     19 O         140.1118  143.4691  169.1908 O.2     1  UNL1       -0.1531
     20 O         139.8354  141.2145  171.1504 O.2     1  UNL1       -0.1531
     21 H         139.2848  144.2119  170.7528 H       1  UNL1        0.1442
     22 H         139.9029  143.3072  172.0074 H       1  UNL1        0.1442
     23 C         139.6223  140.6308  160.3772 C.ar    1  UNL1       -0.0204
     24 C         139.9423  139.3603  159.6468 C.ar    1  UNL1       -0.0041
     25 C         139.4086  139.1360  158.2630 C.ar    1  UNL1        0.0020
     26 C         138.5550  140.1822  157.6096 C.ar    1  UNL1        0.0296
     27 C         138.2351  141.4527  158.3400 C.ar    1  UNL1        0.1398
     28 F         137.3815  142.4988  157.6866 F       1  UNL1       -0.2042
     29 C         138.7688  141.6769  159.7238 C.ar    1  UNL1        0.0254
     30 C         140.9687  141.8617  161.0021 C.3     1  UNL1        0.0215
     31 C         142.4353  141.6322  160.7859 C.3     1  UNL1        0.0723
     32 C         142.5259  141.5850  160.9050 C.3     1  UNL1        0.0893
     33 C         142.4099  140.2001  160.3404 C.3     1  UNL1        0.0386
     34 C         143.0978  139.0532  161.0196 C.3     1  UNL1        0.0594
     35 C         143.9160  138.2518  161.9883 C.3     1  UNL1        0.0174
     36 C         144.4471  139.1887  163.0325 C.3     1  UNL1        0.0174
     37 C         143.9570  140.5690  162.7092 C.3     1  UNL1        0.0594
     38 C         143.3297  141.8228  162.1489 C.3     1  UNL1        0.0386
     39 N         143.1231  140.4853  161.4651 N.3     1  UNL1       -0.2751
     40 C         142.2870  141.7800  157.9724 C.3     1  UNL1        0.0718
     41 C         141.6724  142.9090  158.7455 C.ar    1  UNL1        0.1207
     42 N         140.9271  144.1897  158.5124 N.ar    1  UNL1       -0.2309
     43 C         140.6321  144.8041  159.8486 C.ar    1  UNL1        0.0983
     44 C         139.9236  146.0676  160.2379 C.ar    1  UNL1        0.0206
     45 C         139.7782  146.4302  161.6861 C.ar    1  UNL1        0.0016
     46 C         140.3412  145.5292  162.7450 C.ar    1  UNL1        0.0016
     47 C         141.0497  144.2658  162.3557 C.ar    1  UNL1        0.0188
     48 C         141.1952  143.9032  160.9075 C.ar    1  UNL1        0.0785
     49 N         141.8381  142.7319  160.2258 N.ar    1  UNL1       -0.3167
@<TRIPOS>BOND
     1    40    41    1
     2    41    42   ar
     3    42    43   ar
     4    43    44   ar
     5    44    45   ar
     6    45    46   ar
     7    46    47   ar
     8    47    48   ar
     9    48    49   ar
    10    49    32    1
    11    32    33    1
    12    33    34    1
    13    34    35    1
    14    35    36    1
    15    36    37    1
    16    37    38    1
    17    37    39    1
    18    39    31    1
    19    31    30    1
    20    30     1    1
    21     1    23    1
    22    23    24   ar
    23    24    25   ar
    24    25    26   ar
    25    26    27   ar
    26    27    28    1
    27    27    29   ar
    28     1     2    1
    29     2     3    1
    30     3     4    1
    31     4     5   am
    32     5     6    2
    33     5     9    1
    34     9    10   ar
    35    10    11   ar
    36    11    17    1
    37    17    18    1
    38    17    19    2
    39    17    20    2
    40    11    12   ar
    41    12    13    1
    42    12    14   ar
    43    14    15   ar
    44    15    16    1
    45     4     7    1
    46     7     8    1
    47    49    41   ar
    48    38    32    1
    49     8     1    1
    50    48    43   ar
    51    39    34    1
    52    29    23   ar
    53    15     9   ar
    54    18    21    1
    55    18    22    1
@<TRIPOS>MOLECULE
*****
 49 55 0 0 0
SMALL
GASTEIGER

@<TRIPOS>ATOM
      1 C         140.5069  141.9373  162.0955 C.3     1  UNL1        0.0236
      2 C         141.1123  142.4762  163.3577 C.3     1  UNL1        0.0257
      3 C         141.0357  141.6791  164.6261 C.3     1  UNL1        0.0940
      4 N         140.3537  140.3432  164.6323 N.am    1  UNL1       -0.2760
      5 C         140.2771  139.5461  165.9007 C.2     1  UNL1        0.2499
      6 O         139.5951  138.2101  165.9069 O.2     1  UNL1       -0.2699
      7 C         139.7483  139.8043  163.3701 C.3     1  UNL1        0.0940
      8 C         139.8249  140.6013  162.1018 C.3     1  UNL1        0.0257
      9 C         140.8825  140.0850  167.1628 C.ar    1  UNL1        0.0656
     10 C         140.0861  140.9994  168.0458 C.ar    1  UNL1        0.0276
     11 C         140.6916  141.5383  169.3079 C.ar    1  UNL1        0.1492
     12 C         142.0935  141.1628  169.6871 C.ar    1  UNL1        0.1594
     13 F         142.6989  141.7018  170.9492 F       1  UNL1       -0.2027
     14 C         142.8899  140.2485  168.8041 C.ar    1  UNL1        0.0426
     15 C         142.2844  139.7095  167.5420 C.ar    1  UNL1        0.0643
     16 CL        143.0808  138.7952  166.6590 Cl      1  UNL1       -0.0820
     17 S         139.8952  142.4527  170.1909 S.O2    1  UNL1        0.0593
     18 N         139.0987  143.3671  171.0739 N.3     1  UNL1       -0.2034
     19 O         139.1137  141.2787  170.7017 O.2     1  UNL1       -0.1531
     20 O         140.6767  143.6267  169.6800 O.2     1  UNL1       -0.1531
     21 H         138.4172  142.8217  171.6016 H       1  UNL1        0.1442
     22 H         138.6121  144.0555  170.4997 H       1  UNL1        0.1442
     23 C         140.0878  141.8521  160.6577 C.ar    1  UNL1       -0.0204
     24 C         138.9312  142.6695  160.1640 C.ar    1  UNL1       -0.0041
     25 C         138.5120  142.5843  158.7262 C.ar    1  UNL1        0.0020
     26 C         139.2497  141.6815  157.7823 C.ar    1  UNL1        0.0296
     27 C         140.4064  140.8641  158.2761 C.ar    1  UNL1        0.1398
     28 F         141.1439  139.9614  157.3322 F       1  UNL1       -0.2042
     29 C         140.8254  140.9494  159.7139 C.ar    1  UNL1        0.0254
     30 C         141.0434  143.2436  161.5900 C.3     1  UNL1        0.0215
     31 C         142.5244  143.4747  161.5331 C.3     1  UNL1        0.0723
     32 C         142.6156  143.4510  161.6587 C.3     1  UNL1        0.0893
     33 C         142.9396  142.1094  161.0710 C.3     1  UNL1        0.0386
     34 C         143.8718  141.1805  161.7909 C.3     1  UNL1        0.0594
     35 C         144.8091  140.6101  162.8137 C.3     1  UNL1        0.0174
     36 C         144.9732  141.6229  163.9079 C.3     1  UNL1        0.0174
     37 C         144.1373  142.8193  163.5614 C.3     1  UNL1        0.0594
     38 C         143.2238  143.8636  162.9662 C.3     1  UNL1        0.0386
     39 N         143.4566  142.5459  162.2530 N.3     1  UNL1       -0.2751
     40 C         140.7495  145.2400  163.0772 C.3     1  UNL1        0.0718
     41 C         140.7058  145.3195  161.5800 C.ar    1  UNL1        0.1207
     42 N         139.9834  146.0524  160.4887 N.ar    1  UNL1       -0.2309
     43 C         140.5145  145.5656  159.1730 C.ar    1  UNL1        0.0983
     44 C         140.1771  145.9302  157.7577 C.ar    1  UNL1        0.0206
     45 C         140.8904  145.2609  156.6205 C.ar    1  UNL1        0.0016
     46 C         141.9411  144.2271  156.8986 C.ar    1  UNL1        0.0016
     47 C         142.2784  143.8626  158.3140 C.ar    1  UNL1        0.0188
     48 C         141.5651  144.5319  159.4512 C.ar    1  UNL1        0.0785
     49 N         141.6834  144.3798  160.9387 N.ar    1  UNL1       -0.3167
@<TRIPOS>BOND
     1    40    41    1
     2    41    42   ar
     3    42    43   ar
     4    43    44   ar
     5    44    45   ar
     6    45    46   ar
     7    46    47   ar
     8    47    48   ar
     9    48    49   ar
    10    49    32    1
    11    32    33    1
    12    33    34    1
    13    34    35    1
    14    35    36    1
    15    36    37    1
    16    37    38    1
    17    37    39    1
    18    39    31    1
    19    31    30    1
    20    30     1    1
    21     1    23    1
    22    23    24   ar
    23    24    25   ar
    24    25    26   ar
    25    26    27   ar
    26    27    28    1
    27    27    29   ar
    28     1     2    1
    29     2     3    1
    30     3     4    1
    31     4     5   am
    32     5     6    2
    33     5     9    1
    34     9    10   ar
    35    10    11   ar
    36    11    17    1
    37    17    18    1
    38    17    19    2
    39    17    20    2
    40    11    12   ar
    41    12    13    1
    42    12    14   ar
    43    14    15   ar
    44    15    16    1
    45     4     7    1
    46     7     8    1
    47    49    41   ar
    48    38    32    1
    49     8     1    1
    50    48    43   ar
    51    39    34    1
    52    29    23   ar
    53    15     9   ar
    54    18    21    1
    55    18    22    1
@<TRIPOS>MOLECULE
*****
 49 55 0 0 0
SMALL
GASTEIGER

@<TRIPOS>ATOM
      1 C         141.2323  141.6759  161.7813 C.3     1  UNL1        0.0236
      2 C         141.1473  142.2971  163.1440 C.3     1  UNL1        0.0257
      3 C         140.9805  141.4282  164.3553 C.3     1  UNL1        0.0940
      4 N         140.8987  139.9381  164.2039 N.am    1  UNL1       -0.2760
      5 C         140.7319  139.0692  165.4152 C.2     1  UNL1        0.2499
      6 O         140.6502  137.5791  165.2639 O.2     1  UNL1       -0.2699
      7 C         140.9838  139.3169  162.8413 C.3     1  UNL1        0.0940
      8 C         141.1506  140.1857  161.6300 C.3     1  UNL1        0.0257
      9 C         140.6469  139.6905  166.7779 C.ar    1  UNL1        0.0656
     10 C         141.8713  140.2836  167.4096 C.ar    1  UNL1        0.0276
     11 C         141.7862  140.9048  168.7722 C.ar    1  UNL1        0.1492
     12 C         140.4766  140.9331  169.5032 C.ar    1  UNL1        0.1594
     13 F         140.3916  141.5543  170.8658 F       1  UNL1       -0.2027
     14 C         139.2522  140.3400  168.8715 C.ar    1  UNL1        0.0426
     15 C         139.3373  139.7187  167.5088 C.ar    1  UNL1        0.0643
     16 CL        138.1129  139.1257  166.8771 Cl      1  UNL1       -0.0820
     17 S         143.0106  141.4979  169.4039 S.O2    1  UNL1        0.0593
     18 N         144.2351  142.0911  170.0356 N.3     1  UNL1       -0.2034
     19 O         142.6858  142.8259  168.7866 O.2     1  UNL1       -0.1531
     20 O         143.3354  140.1699  170.0211 O.2     1  UNL1       -0.1531
     21 H         144.3044  143.0769  169.7830 H       1  UNL1        0.1442
     22 H         145.0628  141.5960  169.7034 H       1  UNL1        0.1442
     23 C         141.3613  141.5579  160.2915 C.ar    1  UNL1       -0.0204
     24 C         142.6192  141.0059  159.6890 C.ar    1  UNL1       -0.0041
     25 C         142.7482  140.8879  158.1992 C.ar    1  UNL1        0.0020
     26 C         141.6192  141.3220  157.3120 C.ar    1  UNL1        0.0296
     27 C         140.3614  141.8740  157.9145 C.ar    1  UNL1        0.1398
     28 F         139.2325  142.3080  157.0273 F       1  UNL1       -0.2042
     29 C         140.2325  141.9919  159.4044 C.ar    1  UNL1        0.0254
     30 C         141.3589  143.1250  161.4153 C.3     1  UNL1        0.0215
     31 C         142.5917  143.8899  161.7963 C.3     1  UNL1        0.0723
     32 C         142.6590  143.8704  161.9368 C.3     1  UNL1        0.0893
     33 C         143.6209  142.9405  161.2583 C.3     1  UNL1        0.0386
     34 C         144.7034  142.2713  162.0522 C.3     1  UNL1        0.0594
     35 C         145.5830  141.8472  163.1908 C.3     1  UNL1        0.0174
     36 C         145.0974  142.5345  164.4325 C.3     1  UNL1        0.0174
     37 C         143.9178  143.3834  164.0613 C.3     1  UNL1        0.0594
     38 C         142.7798  144.1310  163.4090 C.3     1  UNL1        0.0386
     39 N         143.6742  143.2207  162.5901 N.3     1  UNL1       -0.2751
     40 C         140.1653  144.8520  163.1670 C.3     1  UNL1        0.0718
     41 C         140.2817  145.0667  161.6870 C.ar    1  UNL1        0.1207
     42 N         139.5036  145.6521  160.5460 N.ar    1  UNL1       -0.2309
     43 C         140.3175  145.4869  159.2968 C.ar    1  UNL1        0.0983
     44 C         140.0576  145.8737  157.8711 C.ar    1  UNL1        0.0206
     45 C         141.0787  145.5730  156.8144 C.ar    1  UNL1        0.0016
     46 C         142.3598  144.8855  157.1833 C.ar    1  UNL1        0.0016
     47 C         142.6197  144.4987  158.6091 C.ar    1  UNL1        0.0188
     48 C         141.5986  144.7994  159.6658 C.ar    1  UNL1        0.0785
     49 N         141.5764  144.5397  161.1430 N.ar    1  UNL1       -0.3167
@<TRIPOS>BOND
     1    40    41    1
     2    41    42   ar
     3    42    43   ar
     4    43    44   ar
     5    44    45   ar
     6    45    46   ar
     7    46    47   ar
     8    47    48   ar
     9    48    49   ar
    10    49    32    1
    11    32    33    1
    12    33    34    1
    13    34    35    1
    14    35    36    1
    15    36    37    1
    16    37    38    1
    17    37    39    1
    18    39    31    1
    19    31    30    1
    20    30     1    1
    21     1    23    1
    22    23    24   ar
    23    24    25   ar
    24    25    26   ar
    25    26    27   ar
    26    27    28    1
    27    27    29   ar
    28     1     2    1
    29     2     3    1
    30     3     4    1
    31     4     5   am
    32     5     6    2
    33     5     9    1
    34     9    10   ar
    35    10    11   ar
    36    11    17    1
    37    17    18    1
    38    17    19    2
    39    17    20    2
    40    11    12   ar
    41    12    13    1
    42    12    14   ar
    43    14    15   ar
    44    15    16    1
    45     4     7    1
    46     7     8    1
    47    49    41   ar
    48    38    32    1
    49     8     1    1
    50    48    43   ar
    51    39    34    1
    52    29    23   ar
    53    15     9   ar
    54    18    21    1
    55    18    22    1
@<TRIPOS>MOLECULE
*****
 49 55 0 0 0
SMALL
GASTEIGER

@<TRIPOS>ATOM
      1 C         140.3431  141.4069  161.8889 C.3     1  UNL1        0.0236
      2 C         141.0487  141.9901  163.0772 C.3     1  UNL1        0.0257
      3 C         140.9369  141.3247  164.4169 C.3     1  UNL1        0.0940
      4 N         140.1196  140.0761  164.5683 N.am    1  UNL1       -0.2760
      5 C         140.0079  139.4107  165.9080 C.2     1  UNL1        0.2499
      6 O         139.1905  138.1620  166.0594 O.2     1  UNL1       -0.2699
      7 C         139.4140  139.4929  163.3800 C.3     1  UNL1        0.0940
      8 C         139.5258  140.1582  162.0404 C.3     1  UNL1        0.0257
      9 C         140.7135  139.9939  167.0962 C.ar    1  UNL1        0.0656
     10 C         139.9743  140.8968  168.0388 C.ar    1  UNL1        0.0276
     11 C         140.6800  141.4800  169.2270 C.ar    1  UNL1        0.1492
     12 C         142.1249  141.1604  169.4726 C.ar    1  UNL1        0.1594
     13 F         142.8305  141.7436  170.6609 F       1  UNL1       -0.2027
     14 C         142.8640  140.2575  168.5301 C.ar    1  UNL1        0.0426
     15 C         142.1583  139.6743  167.3418 C.ar    1  UNL1        0.0643
     16 CL        142.8974  138.7714  166.3993 Cl      1  UNL1       -0.0820
     17 S         139.9409  142.3829  170.1696 S.O2    1  UNL1        0.0593
     18 N         139.2017  143.2858  171.1123 N.3     1  UNL1       -0.2034
     19 O         139.7526  141.2373  171.1194 O.2     1  UNL1       -0.1531
     20 O         140.1292  143.5285  169.2199 O.2     1  UNL1       -0.1531
     21 H         138.9135  142.7559  171.9348 H       1  UNL1        0.1442
     22 H         138.3774  143.6635  170.6451 H       1  UNL1        0.1442
     23 C         139.8635  141.2367  160.4778 C.ar    1  UNL1       -0.0204
     24 C         138.4367  141.5408  160.1288 C.ar    1  UNL1       -0.0041
     25 C         137.9571  141.3706  158.7177 C.ar    1  UNL1        0.0020
     26 C         138.9044  140.8964  157.6557 C.ar    1  UNL1        0.0296
     27 C         140.3312  140.5924  158.0048 C.ar    1  UNL1        0.1398
     28 F         141.2784  140.1182  156.9428 F       1  UNL1       -0.2042
     29 C         140.8107  140.7625  159.4159 C.ar    1  UNL1        0.0254
     30 C         140.9939  142.5963  161.2474 C.3     1  UNL1        0.0215
     31 C         140.5161  143.9801  161.5748 C.3     1  UNL1        0.0723
     32 C         140.5045  144.0285  161.7237 C.3     1  UNL1        0.0893
     33 C         139.0427  143.7048  161.6317 C.3     1  UNL1        0.0386
     34 C         138.1489  143.9293  162.8152 C.3     1  UNL1        0.0594
     35 C         137.6609  144.2984  164.1848 C.3     1  UNL1        0.0174
     36 C         138.8328  144.8017  164.9743 C.3     1  UNL1        0.0174
     37 C         140.0450  144.7438  164.0927 C.3     1  UNL1        0.0594
     38 C         141.0724  144.5766  162.9992 C.3     1  UNL1        0.0386
     39 N         139.6223  144.2046  162.7582 N.3     1  UNL1       -0.2751
     40 C         139.6654  144.6383  158.9633 C.3     1  UNL1        0.0718
     41 C         141.0524  144.0857  159.1080 C.ar    1  UNL1        0.1207
     42 N         142.2353  143.7141  158.2638 N.ar    1  UNL1       -0.2309
     43 C         143.3123  143.2028  159.1741 C.ar    1  UNL1        0.0983
     44 C         144.6971  142.6939  158.9038 C.ar    1  UNL1        0.0206
     45 C         145.5646  142.2404  160.0403 C.ar    1  UNL1        0.0016
     46 C         145.0474  142.2960  161.4472 C.ar    1  UNL1        0.0016
     47 C         143.6625  142.8049  161.7175 C.ar    1  UNL1        0.0188
     48 C         142.7950  143.2584  160.5810 C.ar    1  UNL1        0.0785
     49 N         141.3983  143.8040  160.5402 N.ar    1  UNL1       -0.3167
@<TRIPOS>BOND
     1    40    41    1
     2    41    42   ar
     3    42    43   ar
     4    43    44   ar
     5    44    45   ar
     6    45    46   ar
     7    46    47   ar
     8    47    48   ar
     9    48    49   ar
    10    49    32    1
    11    32    33    1
    12    33    34    1
    13    34    35    1
    14    35    36    1
    15    36    37    1
    16    37    38    1
    17    37    39    1
    18    39    31    1
    19    31    30    1
    20    30     1    1
    21     1    23    1
    22    23    24   ar
    23    24    25   ar
    24    25    26   ar
    25    26    27   ar
    26    27    28    1
    27    27    29   ar
    28     1     2    1
    29     2     3    1
    30     3     4    1
    31     4     5   am
    32     5     6    2
    33     5     9    1
    34     9    10   ar
    35    10    11   ar
    36    11    17    1
    37    17    18    1
    38    17    19    2
    39    17    20    2
    40    11    12   ar
    41    12    13    1
    42    12    14   ar
    43    14    15   ar
    44    15    16    1
    45     4     7    1
    46     7     8    1
    47    49    41   ar
    48    38    32    1
    49     8     1    1
    50    48    43   ar
    51    39    34    1
    52    29    23   ar
    53    15     9   ar
    54    18    21    1
    55    18    22    1
@<TRIPOS>MOLECULE
*****
 49 55 0 0 0
SMALL
GASTEIGER

@<TRIPOS>ATOM
      1 C         141.1322  141.9734  162.0902 C.3     1  UNL1        0.0236
      2 C         140.4945  141.2751  163.2546 C.3     1  UNL1        0.0257
      3 C         141.0966  141.3962  164.6231 C.3     1  UNL1        0.0940
      4 N         142.3363  142.2156  164.8273 N.am    1  UNL1       -0.2760
      5 C         142.9383  142.3367  166.1958 C.2     1  UNL1        0.2499
      6 O         144.1780  143.1562  166.4000 O.2     1  UNL1       -0.2699
      7 C         142.9739  142.9139  163.6629 C.3     1  UNL1        0.0940
      8 C         142.3719  142.7929  162.2944 C.3     1  UNL1        0.0257
      9 C         142.3006  141.6384  167.3601 C.ar    1  UNL1        0.0656
     10 C         141.4344  142.4073  168.3132 C.ar    1  UNL1        0.0276
     11 C         140.7967  141.7088  169.4775 C.ar    1  UNL1        0.1492
     12 C         141.0253  140.2415  169.6887 C.ar    1  UNL1        0.1594
     13 F         140.3876  139.5431  170.8530 F       1  UNL1       -0.2027
     14 C         141.8916  139.4726  168.7357 C.ar    1  UNL1        0.0426
     15 C         142.5293  140.1710  167.5714 C.ar    1  UNL1        0.0643
     16 CL        143.3956  139.4021  166.6184 Cl      1  UNL1       -0.0820
     17 S         139.9304  142.4778  170.4305 S.O2    1  UNL1        0.0593
     18 N         139.0640  143.2467  171.3836 N.3     1  UNL1       -0.2034
     19 O         138.8440  141.4566  170.2669 O.2     1  UNL1       -0.1531
     20 O         141.0169  143.4989  170.5942 O.2     1  UNL1       -0.1531
     21 H         138.1712  142.7662  171.4947 H       1  UNL1        0.1442
     22 H         138.9023  144.1841  171.0154 H       1  UNL1        0.1442
     23 C         141.3677  142.4440  160.6855 C.ar    1  UNL1       -0.0204
     24 C         141.8547  141.4809  159.6437 C.ar    1  UNL1       -0.0041
     25 C         142.0902  141.9515  158.2389 C.ar    1  UNL1        0.0020
     26 C         141.8388  143.3851  157.8762 C.ar    1  UNL1        0.0296
     27 C         141.3518  144.3481  158.9181 C.ar    1  UNL1        0.1398
     28 F         141.1004  145.7816  158.5552 F       1  UNL1       -0.2042
     29 C         141.1163  143.8775  160.3227 C.ar    1  UNL1        0.0254
     30 C         139.9743  141.3174  161.3982 C.3     1  UNL1        0.0215
     31 C         138.5726  141.7587  161.6994 C.3     1  UNL1        0.0723
     32 C         138.5214  141.7784  161.8465 C.3     1  UNL1        0.0893
     33 C         138.8239  143.2372  161.6714 C.3     1  UNL1        0.0386
     34 C         138.5647  144.1970  162.7947 C.3     1  UNL1        0.0594
     35 C         138.1641  144.7605  164.1258 C.3     1  UNL1        0.0174
     36 C         137.6652  143.6302  164.9765 C.3     1  UNL1        0.0174
     37 C         137.7575  142.3681  164.1711 C.3     1  UNL1        0.0594
     38 C         137.9598  141.2795  163.1448 C.3     1  UNL1        0.0386
     39 N         138.3135  142.7184  162.8226 N.3     1  UNL1       -0.2751
     40 C         139.2824  138.9667  162.3056 C.3     1  UNL1        0.0718
     41 C         139.1706  139.3774  160.8673 C.ar    1  UNL1        0.1207
     42 N         139.3263  138.7997  159.4918 N.ar    1  UNL1       -0.2309
     43 C         139.0326  139.8839  158.4976 C.ar    1  UNL1        0.0983
     44 C         139.0286  139.8961  156.9977 C.ar    1  UNL1        0.0206
     45 C         138.6874  141.1561  156.2589 C.ar    1  UNL1        0.0016
     46 C         138.3501  142.4039  157.0200 C.ar    1  UNL1        0.0016
     47 C         138.3541  142.3917  158.5199 C.ar    1  UNL1        0.0188
     48 C         138.6953  141.1317  159.2587 C.ar    1  UNL1        0.0785
     49 N         138.7806  140.8187  160.7232 N.ar    1  UNL1       -0.3167
@<TRIPOS>BOND
     1    40    41    1
     2    41    42   ar
     3    42    43   ar
     4    43    44   ar
     5    44    45   ar
     6    45    46   ar
     7    46    47   ar
     8    47    48   ar
     9    48    49   ar
    10    49    32    1
    11    32    33    1
    12    33    34    1
    13    34    35    1
    14    35    36    1
    15    36    37    1
    16    37    38    1
    17    37    39    1
    18    39    31    1
    19    31    30    1
    20    30     1    1
    21     1    23    1
    22    23    24   ar
    23    24    25   ar
    24    25    26   ar
    25    26    27   ar
    26    27    28    1
    27    27    29   ar
    28     1     2    1
    29     2     3    1
    30     3     4    1
    31     4     5   am
    32     5     6    2
    33     5     9    1
    34     9    10   ar
    35    10    11   ar
    36    11    17    1
    37    17    18    1
    38    17    19    2
    39    17    20    2
    40    11    12   ar
    41    12    13    1
    42    12    14   ar
    43    14    15   ar
    44    15    16    1
    45     4     7    1
    46     7     8    1
    47    49    41   ar
    48    38    32    1
    49     8     1    1
    50    48    43   ar
    51    39    34    1
    52    29    23   ar
    53    15     9   ar
    54    18    21    1
    55    18    22    1
@<TRIPOS>MOLECULE
*****
 49 55 0 0 0
SMALL
GASTEIGER

@<TRIPOS>ATOM
      1 C         140.3751  142.2916  161.5633 C.3     1  UNL1        0.0236
      2 C         141.2621  141.7425  160.4854 C.3     1  UNL1        0.0257
      3 C         140.6583  141.0943  159.2749 C.3     1  UNL1        0.0940
      4 N         139.1675  140.9951  159.1423 N.am    1  UNL1       -0.2760
      5 C         138.5637  140.3469  157.9318 C.2     1  UNL1        0.2499
      6 O         137.0729  140.2478  157.7991 O.2     1  UNL1       -0.2699
      7 C         138.2805  141.5442  160.2201 C.3     1  UNL1        0.0940
      8 C         138.8842  142.1924  161.4305 C.3     1  UNL1        0.0257
      9 C         139.4508  139.7979  156.8540 C.ar    1  UNL1        0.0656
     10 C         139.8367  138.3484  156.8661 C.ar    1  UNL1        0.0276
     11 C         140.7238  137.7995  155.7883 C.ar    1  UNL1        0.1492
     12 C         141.2251  138.7000  154.6984 C.ar    1  UNL1        0.1594
     13 F         142.1122  138.1510  153.6206 F       1  UNL1       -0.2027
     14 C         140.8392  140.1495  154.6863 C.ar    1  UNL1        0.0426
     15 C         139.9521  140.6984  155.7641 C.ar    1  UNL1        0.0643
     16 CL        139.5662  142.1479  155.7520 Cl      1  UNL1       -0.0820
     17 S         141.1097  136.3500  155.8003 S.O2    1  UNL1        0.0593
     18 N         141.4956  134.9005  155.8125 N.3     1  UNL1       -0.2034
     19 O         142.1087  136.6250  156.8849 O.2     1  UNL1       -0.1531
     20 O         140.1107  136.0750  154.7157 O.2     1  UNL1       -0.1531
     21 H         142.2235  134.7483  156.5106 H       1  UNL1        0.1442
     22 H         141.8460  134.6342  154.8923 H       1  UNL1        0.1442
     23 C         139.9551  142.9551  162.8413 C.ar    1  UNL1       -0.0204
     24 C         139.3119  144.3098  162.8069 C.ar    1  UNL1       -0.0041
     25 C         138.8919  144.9733  164.0850 C.ar    1  UNL1        0.0020
     26 C         139.1151  144.2821  165.3974 C.ar    1  UNL1        0.0296
     27 C         139.7583  142.9273  165.4318 C.ar    1  UNL1        0.1398
     28 F         139.9814  142.2362  166.7441 F       1  UNL1       -0.2042
     29 C         140.1783  142.2639  164.1537 C.ar    1  UNL1        0.0254
     30 C         141.7200  142.6212  162.1398 C.3     1  UNL1        0.0215
     31 C         142.5846  143.6560  161.4826 C.3     1  UNL1        0.0723
     32 C         142.6078  143.6543  161.3274 C.3     1  UNL1        0.0893
     33 C         141.5464  144.7105  161.2376 C.3     1  UNL1        0.0386
     34 C         141.1593  145.2731  159.9021 C.3     1  UNL1        0.0594
     35 C         141.1008  145.5318  158.4257 C.3     1  UNL1        0.0174
     36 C         142.1028  144.6370  157.7583 C.3     1  UNL1        0.0174
     37 C         142.7807  143.8254  158.8222 C.3     1  UNL1        0.0594
     38 C         143.2820  143.1608  160.0817 C.3     1  UNL1        0.0386
     39 N         142.1975  144.2186  160.1472 N.3     1  UNL1       -0.2751
     40 C         142.6354  145.2810  163.7868 C.3     1  UNL1        0.0718
     41 C         143.0360  143.8457  163.9589 C.ar    1  UNL1        0.1207
     42 N         143.4753  142.8962  165.0339 N.ar    1  UNL1       -0.2309
     43 C         143.7058  141.5554  164.4022 C.ar    1  UNL1        0.0983
     44 C         144.1476  140.2401  164.9720 C.ar    1  UNL1        0.0206
     45 C         144.2925  139.0456  164.0764 C.ar    1  UNL1        0.0016
     46 C         143.9956  139.1663  162.6111 C.ar    1  UNL1        0.0016
     47 C         143.5537  140.4816  162.0413 C.ar    1  UNL1        0.0188
     48 C         143.4088  141.6762  162.9368 C.ar    1  UNL1        0.0785
     49 N         142.9949  143.0917  162.6629 N.ar    1  UNL1       -0.3167
@<TRIPOS>BOND
     1    40    41    1
     2    41    42   ar
     3    42    43   ar
     4    43    44   ar
     5    44    45   ar
     6    45    46   ar
     7    46    47   ar
     8    47    48   ar
     9    48    49   ar
    10    49    32    1
    11    32    33    1
    12    33    34    1
    13    34    35    1
    14    35    36    1
    15    36    37    1
    16    37    38    1
    17    37    39    1
    18    39    31    1
    19    31    30    1
    20    30     1    1
    21     1    23    1
    22    23    24   ar
    23    24    25   ar
    24    25    26   ar
    25    26    27   ar
    26    27    28    1
    27    27    29   ar
    28     1     2    1
    29     2     3    1
    30     3     4    1
    31     4     5   am
    32     5     6    2
    33     5     9    1
    34     9    10   ar
    35    10    11   ar
    36    11    17    1
    37    17    18    1
    38    17    19    2
    39    17    20    2
    40    11    12   ar
    41    12    13    1
    42    12    14   ar
    43    14    15   ar
    44    15    16    1
    45     4     7    1
    46     7     8    1
    47    49    41   ar
    48    38    32    1
    49     8     1    1
    50    48    43   ar
    51    39    34    1
    52    29    23   ar
    53    15     9   ar
    54    18    21    1
    55    18    22    1
@<TRIPOS>MOLECULE
*****
 49 55 0 0 0
SMALL
GASTEIGER

@<TRIPOS>ATOM
      1 C         141.8140  142.0366  162.5286 C.3     1  UNL1        0.0236
      2 C         141.4825  141.3860  161.2183 C.3     1  UNL1        0.0257
      3 C         140.8499  142.1894  160.1208 C.3     1  UNL1        0.0940
      4 N         140.5488  143.6434  160.3336 N.am    1  UNL1       -0.2760
      5 C         139.9162  144.4467  159.2361 C.2     1  UNL1        0.2499
      6 O         139.6150  145.9007  159.4490 O.2     1  UNL1       -0.2699
      7 C         140.8803  144.2940  161.6439 C.3     1  UNL1        0.0940
      8 C         141.5129  143.4907  162.7413 C.3     1  UNL1        0.0257
      9 C         139.5847  143.7961  157.9259 C.ar    1  UNL1        0.0656
     10 C         138.3907  142.8947  157.8169 C.ar    1  UNL1        0.0276
     11 C         138.0593  142.2440  156.5066 C.ar    1  UNL1        0.1492
     12 C         138.9219  142.4948  155.3053 C.ar    1  UNL1        0.1594
     13 F         138.5905  141.8441  153.9951 F       1  UNL1       -0.2027
     14 C         140.1159  143.3962  155.4143 C.ar    1  UNL1        0.0426
     15 C         140.4473  144.0468  156.7246 C.ar    1  UNL1        0.0643
     16 CL        141.6413  144.9482  156.8336 Cl      1  UNL1       -0.0820
     17 S         136.8654  141.3426  156.3976 S.O2    1  UNL1        0.0593
     18 N         135.6714  140.4411  156.2886 N.3     1  UNL1       -0.2034
     19 O         137.6127  140.2647  157.1254 O.2     1  UNL1       -0.1531
     20 O         136.1180  142.4205  155.6698 O.2     1  UNL1       -0.1531
     21 H         135.8799  139.5458  156.7305 H       1  UNL1        0.1442
     22 H         135.4475  140.2908  155.3049 H       1  UNL1        0.1442
     23 C         142.3099  142.2023  163.9346 C.ar    1  UNL1       -0.0204
     24 C         141.5484  141.5944  165.0749 C.ar    1  UNL1       -0.0041
     25 C         142.0443  141.7601  166.4809 C.ar    1  UNL1        0.0020
     26 C         143.3017  142.5337  166.7464 C.ar    1  UNL1        0.0296
     27 C         144.0632  143.1416  165.6059 C.ar    1  UNL1        0.1398
     28 F         145.3205  143.9152  165.8714 F       1  UNL1       -0.2042
     29 C         143.5672  142.9759  164.2000 C.ar    1  UNL1        0.0254
     30 C         142.2873  140.6403  162.8040 C.3     1  UNL1        0.0215
     31 C         143.4511  140.0788  162.0421 C.3     1  UNL1        0.0723
     32 C         143.4620  140.0874  161.8858 C.3     1  UNL1        0.0893
     33 C         144.3032  141.3122  162.0918 C.3     1  UNL1        0.0386
     34 C         144.8525  142.0526  160.9085 C.3     1  UNL1        0.0594
     35 C         145.1728  142.4518  159.4985 C.3     1  UNL1        0.0174
     36 C         144.5187  141.4650  158.5774 C.3     1  UNL1        0.0174
     37 C         143.7941  140.4559  159.4182 C.3     1  UNL1        0.0594
     38 C         143.1702  139.6031  160.4965 C.3     1  UNL1        0.0386
     39 N         144.0004  140.8191  160.8589 N.3     1  UNL1       -0.2751
     40 C         145.0286  139.6381  164.3433 C.3     1  UNL1        0.0718
     41 C         143.6384  139.0749  164.3533 C.ar    1  UNL1        0.1207
     42 N         142.7154  138.3086  165.2538 N.ar    1  UNL1       -0.2309
     43 C         141.4193  138.1071  164.5260 C.ar    1  UNL1        0.0983
     44 C         140.1439  137.4222  164.9185 C.ar    1  UNL1        0.0206
     45 C         138.9904  137.3791  163.9606 C.ar    1  UNL1        0.0016
     46 C         139.1123  138.0209  162.6104 C.ar    1  UNL1        0.0016
     47 C         140.3877  138.7059  162.2180 C.ar    1  UNL1        0.0188
     48 C         141.5413  138.7490  163.1758 C.ar    1  UNL1        0.0785
     49 N         142.9127  139.3471  163.0691 N.ar    1  UNL1       -0.3167
@<TRIPOS>BOND
     1    40    41    1
     2    41    42   ar
     3    42    43   ar
     4    43    44   ar
     5    44    45   ar
     6    45    46   ar
     7    46    47   ar
     8    47    48   ar
     9    48    49   ar
    10    49    32    1
    11    32    33    1
    12    33    34    1
    13    34    35    1
    14    35    36    1
    15    36    37    1
    16    37    38    1
    17    37    39    1
    18    39    31    1
    19    31    30    1
    20    30     1    1
    21     1    23    1
    22    23    24   ar
    23    24    25   ar
    24    25    26   ar
    25    26    27   ar
    26    27    28    1
    27    27    29   ar
    28     1     2    1
    29     2     3    1
    30     3     4    1
    31     4     5   am
    32     5     6    2
    33     5     9    1
    34     9    10   ar
    35    10    11   ar
    36    11    17    1
    37    17    18    1
    38    17    19    2
    39    17    20    2
    40    11    12   ar
    41    12    13    1
    42    12    14   ar
    43    14    15   ar
    44    15    16    1
    45     4     7    1
    46     7     8    1
    47    49    41   ar
    48    38    32    1
    49     8     1    1
    50    48    43   ar
    51    39    34    1
    52    29    23   ar
    53    15     9   ar
    54    18    21    1
    55    18    22    1
