@<TRIPOS>MOLECULE
*****
 50 53 0 0 0
SMALL
GASTEIGER

@<TRIPOS>ATOM
      1 C         144.8122  141.5893  162.2101 C.ar    1  UNL1       -0.0212
      2 C         145.6902  141.5509  163.4256 C.ar    1  UNL1       -0.0042
      3 C         145.6680  140.3539  164.3293 C.ar    1  UNL1       -0.0006
      4 C         144.7679  139.1952  164.0173 C.ar    1  UNL1       -0.0038
      5 C         143.8899  139.2336  162.8017 C.ar    1  UNL1       -0.0134
      6 C         143.9121  140.4306  161.8981 C.ar    1  UNL1       -0.0080
      7 C         144.8344  142.7863  161.3064 C.3     1  UNL1        0.0407
      8 C         143.7635  144.1179  162.5633 C.3     1  UNL1        0.0161
      9 C         143.6057  143.6329  161.1527 C.3     1  UNL1        0.0461
     10 C         143.4479  143.1478  159.7421 C.3     1  UNL1        0.0161
     11 N         142.3769  144.4794  160.9990 N.3     1  UNL1       -0.2970
     12 H         141.6083  143.8457  160.7798 H       1  UNL1        0.1233
     13 C         141.9150  145.3440  162.1344 C.3     1  UNL1        0.1027
     14 C         140.4539  145.6347  162.3095 C.3     1  UNL1        0.1484
     15 O         139.9646  147.0526  162.2976 O.3     1  UNL1       -0.3786
     16 H         140.7156  147.6526  162.1677 H       1  UNL1        0.2108
     17 C         139.4820  144.5075  162.4963 C.ar    1  UNL1        0.0071
     18 C         138.7932  144.3220  163.8158 C.ar    1  UNL1        0.0013
     19 C         137.8214  143.1948  164.0027 C.ar    1  UNL1        0.0377
     20 C         137.5383  142.2530  162.8700 C.ar    1  UNL1        0.1481
     21 O         136.5665  141.1258  163.0569 O.3     1  UNL1       -0.5042
     22 C         138.2272  142.4385  161.5505 C.ar    1  UNL1        0.0977
     23 C         139.1990  143.5657  161.3637 C.ar    1  UNL1        0.0170
     24 H         136.1362  141.0100  163.8811 H       1  UNL1        0.2922
     25 N         137.9442  141.4967  160.4178 N.pl3   1  UNL1       -0.2158
     26 H         137.3999  141.7952  159.6537 H       1  UNL1        0.1735
     27 S         138.4904  140.1001  160.4493 S.O2    1  UNL1        0.0559
     28 C         139.0367  138.7035  160.4808 C.3     1  UNL1        0.1996
     29 O         137.1009  139.5603  160.6160 O.2     1  UNL1       -0.1544
     30 O         139.8800  140.6398  160.2826 O.2     1  UNL1       -0.1544
     31 C         142.9898  138.0749  162.4898 C.3     1  UNL1        0.1113
     32 C         141.5820  138.0583  163.0072 C.2     1  UNL1        0.2271
     33 O         140.8033  136.7763  163.0216 O.2     1  UNL1       -0.2747
     34 N         140.9529  139.3237  163.5103 N.am    1  UNL1       -0.3001
     35 H         141.4640  140.1651  163.5009 H       1  UNL1        0.1498
     36 C         139.5450  139.3070  164.0278 C.3     1  UNL1        0.1163
     37 C         139.2844  139.4555  165.4975 C.ar    1  UNL1       -0.0026
     38 C         138.1295  138.7378  166.1307 C.ar    1  UNL1       -0.0026
     39 C         137.8688  138.8863  167.6003 C.ar    1  UNL1       -0.0003
     40 C         138.7631  139.7526  168.4369 C.ar    1  UNL1       -0.0000
     41 C         139.9181  140.4704  167.8037 C.ar    1  UNL1       -0.0003
     42 C         140.1787  140.3219  166.3340 C.ar    1  UNL1       -0.0026
     43 C         140.8124  141.3366  168.6402 C.ar    1  UNL1        0.0002
     44 C         142.1846  140.8589  169.0128 C.ar    1  UNL1        0.0031
     45 C         143.0789  141.7252  169.8494 C.ar    1  UNL1        0.0366
     46 C         142.6010  143.0692  170.3133 C.ar    1  UNL1        0.1337
     47 O         143.4952  143.9355  171.1498 O.3     1  UNL1       -0.5055
     48 C         141.2288  143.5470  169.9407 C.ar    1  UNL1        0.0366
     49 C         140.3345  142.6806  169.1041 C.ar    1  UNL1        0.0031
     50 H         144.3524  143.6371  171.3826 H       1  UNL1        0.2922
@<TRIPOS>BOND
     1     8     9    1
     2     9    10    1
     3     9     7    1
     4     7     1    1
     5     1     2   ar
     6     2     3   ar
     7     3     4   ar
     8     4     5   ar
     9     5    31    1
    10    31    32    1
    11    32    33    2
    12    32    34   am
    13    34    36    1
    14    36    37    1
    15    37    38   ar
    16    38    39   ar
    17    39    40   ar
    18    40    41   ar
    19    41    43    1
    20    43    44   ar
    21    44    45   ar
    22    45    46   ar
    23    46    47    1
    24    46    48   ar
    25    48    49   ar
    26    41    42   ar
    27     5     6   ar
    28     9    11    1
    29    11    13    1
    30    13    14    1
    31    14    15    1
    32    14    17    1
    33    17    18   ar
    34    18    19   ar
    35    19    20   ar
    36    20    21    1
    37    20    22   ar
    38    22    25    1
    39    25    27    1
    40    27    28    1
    41    27    29    2
    42    27    30    2
    43    22    23   ar
    44     6     1   ar
    45    23    17   ar
    46    42    37   ar
    47    49    43   ar
    48    34    35    1
    49    47    50    1
    50    11    12    1
    51    15    16    1
    52    21    24    1
    53    25    26    1
@<TRIPOS>MOLECULE
*****
 50 53 0 0 0
SMALL
GASTEIGER

@<TRIPOS>ATOM
      1 C         138.0443  140.4462  162.5091 C.ar    1  UNL1       -0.0212
      2 C         137.7865  140.4611  161.0315 C.ar    1  UNL1       -0.0042
      3 C         138.4801  139.4748  160.1392 C.ar    1  UNL1       -0.0006
      4 C         139.4315  138.4737  160.7245 C.ar    1  UNL1       -0.0038
      5 C         139.6894  138.4589  162.2021 C.ar    1  UNL1       -0.0134
      6 C         138.9958  139.4452  163.0944 C.ar    1  UNL1       -0.0080
      7 C         137.3507  141.4325  163.4014 C.3     1  UNL1        0.0407
      8 C         137.6973  143.4355  162.7949 C.3     1  UNL1        0.0161
      9 C         138.1104  142.5957  163.9670 C.3     1  UNL1        0.0461
     10 C         138.5235  141.7558  165.1392 C.3     1  UNL1        0.0161
     11 N         138.8701  143.7588  164.5328 N.3     1  UNL1       -0.2970
     12 H         138.4957  143.9291  165.4662 H       1  UNL1        0.1233
     13 C         140.3618  143.6843  164.6715 C.3     1  UNL1        0.1027
     14 C         141.2439  144.3116  163.6331 C.3     1  UNL1        0.1484
     15 O         141.8298  145.6720  163.8694 O.3     1  UNL1       -0.3786
     16 H         141.5413  146.0025  164.7345 H       1  UNL1        0.2108
     17 C         141.5401  143.5785  162.3584 C.ar    1  UNL1        0.0071
     18 C         141.4407  142.0825  162.3131 C.ar    1  UNL1        0.0013
     19 C         141.7369  141.3494  161.0384 C.ar    1  UNL1        0.0377
     20 C         142.1325  142.1123  159.8090 C.ar    1  UNL1        0.1481
     21 O         142.4287  141.3792  158.5343 O.3     1  UNL1       -0.5042
     22 C         142.2318  143.6083  159.8543 C.ar    1  UNL1        0.0977
     23 C         141.9356  144.3414  161.1290 C.ar    1  UNL1        0.0170
     24 H         142.3666  140.4447  158.5060 H       1  UNL1        0.2922
     25 N         142.6274  144.3713  158.6248 N.pl3   1  UNL1       -0.2158
     26 H         143.5530  144.3241  158.2928 H       1  UNL1        0.1735
     27 S         141.6127  145.2060  157.9013 S.O2    1  UNL1        0.0559
     28 C         140.5979  146.0408  157.1778 C.3     1  UNL1        0.1996
     29 O         142.5705  146.3603  157.8898 O.2     1  UNL1       -0.1544
     30 O         140.6549  144.0517  157.9128 O.2     1  UNL1       -0.1544
     31 C         140.6408  137.4578  162.7874 C.3     1  UNL1        0.1113
     32 C         141.7996  137.9217  163.6192 C.2     1  UNL1        0.2271
     33 O         141.8402  137.6140  165.0868 O.2     1  UNL1       -0.2747
     34 N         142.9179  138.6933  162.9835 N.am    1  UNL1       -0.3001
     35 H         142.8913  138.8952  162.0203 H       1  UNL1        0.1498
     36 C         144.0768  139.1572  163.8153 C.3     1  UNL1        0.1163
     37 C         144.0141  140.4818  164.5164 C.ar    1  UNL1       -0.0026
     38 C         144.6625  141.6868  163.9021 C.ar    1  UNL1       -0.0026
     39 C         144.5998  143.0115  164.6031 C.ar    1  UNL1       -0.0003
     40 C         143.8887  143.1310  165.9184 C.ar    1  UNL1       -0.0000
     41 C         143.2402  141.9259  166.5327 C.ar    1  UNL1       -0.0003
     42 C         143.3029  140.6013  165.8317 C.ar    1  UNL1       -0.0026
     43 C         142.5291  142.0455  167.8480 C.ar    1  UNL1        0.0002
     44 C         143.2986  142.3935  169.0877 C.ar    1  UNL1        0.0031
     45 C         142.5874  142.5130  170.4030 C.ar    1  UNL1        0.0366
     46 C         141.1068  142.2847  170.4786 C.ar    1  UNL1        0.1337
     47 O         140.3957  142.4043  171.7938 O.3     1  UNL1       -0.5055
     48 C         140.3374  141.9367  169.2389 C.ar    1  UNL1        0.0366
     49 C         141.0486  141.8172  167.9235 C.ar    1  UNL1        0.0031
     50 H         140.8763  142.6216  172.5682 H       1  UNL1        0.2922
@<TRIPOS>BOND
     1     8     9    1
     2     9    10    1
     3     9     7    1
     4     7     1    1
     5     1     2   ar
     6     2     3   ar
     7     3     4   ar
     8     4     5   ar
     9     5    31    1
    10    31    32    1
    11    32    33    2
    12    32    34   am
    13    34    36    1
    14    36    37    1
    15    37    38   ar
    16    38    39   ar
    17    39    40   ar
    18    40    41   ar
    19    41    43    1
    20    43    44   ar
    21    44    45   ar
    22    45    46   ar
    23    46    47    1
    24    46    48   ar
    25    48    49   ar
    26    41    42   ar
    27     5     6   ar
    28     9    11    1
    29    11    13    1
    30    13    14    1
    31    14    15    1
    32    14    17    1
    33    17    18   ar
    34    18    19   ar
    35    19    20   ar
    36    20    21    1
    37    20    22   ar
    38    22    25    1
    39    25    27    1
    40    27    28    1
    41    27    29    2
    42    27    30    2
    43    22    23   ar
    44     6     1   ar
    45    23    17   ar
    46    42    37   ar
    47    49    43   ar
    48    34    35    1
    49    47    50    1
    50    11    12    1
    51    15    16    1
    52    21    24    1
    53    25    26    1
@<TRIPOS>MOLECULE
*****
 50 53 0 0 0
SMALL
GASTEIGER

@<TRIPOS>ATOM
      1 C         139.2240  143.7605  163.9721 C.ar    1  UNL1       -0.0212
      2 C         138.4622  144.6548  163.0394 C.ar    1  UNL1       -0.0042
      3 C         139.1954  145.6447  162.1836 C.ar    1  UNL1       -0.0006
      4 C         140.6904  145.7403  162.2605 C.ar    1  UNL1       -0.0038
      5 C         141.4522  144.8460  163.1931 C.ar    1  UNL1       -0.0134
      6 C         140.7190  143.8561  164.0489 C.ar    1  UNL1       -0.0080
      7 C         138.4908  142.7705  164.8279 C.3     1  UNL1        0.0407
      8 C         137.1874  141.7835  163.4764 C.3     1  UNL1        0.0161
      9 C         138.3212  141.3554  164.3603 C.3     1  UNL1        0.0461
     10 C         139.4549  140.9274  165.2441 C.3     1  UNL1        0.0161
     11 N         138.1515  139.9403  163.8926 N.3     1  UNL1       -0.2970
     12 H         137.1767  139.6902  164.0584 H       1  UNL1        0.1233
     13 C         138.4549  139.5796  162.4686 C.3     1  UNL1        0.1027
     14 C         139.7933  139.9131  161.8792 C.3     1  UNL1        0.1484
     15 O         140.9726  139.0255  162.1463 O.3     1  UNL1       -0.3786
     16 H         140.6996  138.2869  162.7128 H       1  UNL1        0.2108
     17 C         139.9524  141.1342  161.0227 C.ar    1  UNL1        0.0071
     18 C         138.7647  141.7109  160.3108 C.ar    1  UNL1        0.0013
     19 C         138.9238  142.9320  159.4543 C.ar    1  UNL1        0.0377
     20 C         140.2706  143.5764  159.3097 C.ar    1  UNL1        0.1481
     21 O         140.4297  144.7975  158.4532 O.3     1  UNL1       -0.5042
     22 C         141.4582  142.9997  160.0216 C.ar    1  UNL1        0.0977
     23 C         141.2991  141.7786  160.8781 C.ar    1  UNL1        0.0170
     24 H         139.6878  145.1577  158.0085 H       1  UNL1        0.2922
     25 N         142.8051  143.6441  159.8771 N.pl3   1  UNL1       -0.2158
     26 H         142.9944  144.4963  160.3323 H       1  UNL1        0.1735
     27 S         143.8633  142.9902  159.0390 S.O2    1  UNL1        0.0559
     28 C         144.9216  142.3362  158.2010 C.3     1  UNL1        0.1996
     29 O         144.5728  142.5441  160.2830 O.2     1  UNL1       -0.1544
     30 O         143.1539  143.4363  157.7950 O.2     1  UNL1       -0.1544
     31 C         142.9472  144.9417  163.2699 C.3     1  UNL1        0.1113
     32 C         143.7384  143.8324  163.8971 C.2     1  UNL1        0.2271
     33 O         144.5340  144.0899  165.1425 O.2     1  UNL1       -0.2747
     34 N         143.7341  142.4657  163.2791 N.am    1  UNL1       -0.3001
     35 H         143.2119  142.2967  162.4618 H       1  UNL1        0.1498
     36 C         144.5254  141.3564  163.9064 C.3     1  UNL1        0.1163
     37 C         143.9451  140.5730  165.0464 C.ar    1  UNL1       -0.0026
     38 C         144.2162  139.1021  165.1604 C.ar    1  UNL1       -0.0026
     39 C         143.6360  138.3187  166.3004 C.ar    1  UNL1       -0.0003
     40 C         142.7846  139.0061  167.3263 C.ar    1  UNL1       -0.0000
     41 C         142.5135  140.4770  167.2123 C.ar    1  UNL1       -0.0003
     42 C         143.0937  141.2604  166.0723 C.ar    1  UNL1       -0.0026
     43 C         141.6621  141.1644  168.2382 C.ar    1  UNL1        0.0002
     44 C         141.2807  142.6034  168.0541 C.ar    1  UNL1        0.0031
     45 C         140.4293  143.2908  169.0801 C.ar    1  UNL1        0.0366
     46 C         139.9593  142.5392  170.2902 C.ar    1  UNL1        0.1337
     47 O         139.1079  143.2266  171.3161 O.3     1  UNL1       -0.5055
     48 C         140.3407  141.1002  170.4743 C.ar    1  UNL1        0.0366
     49 C         141.1921  140.4128  169.4483 C.ar    1  UNL1        0.0031
     50 H         138.8697  144.1255  171.2011 H       1  UNL1        0.2922
@<TRIPOS>BOND
     1     8     9    1
     2     9    10    1
     3     9     7    1
     4     7     1    1
     5     1     2   ar
     6     2     3   ar
     7     3     4   ar
     8     4     5   ar
     9     5    31    1
    10    31    32    1
    11    32    33    2
    12    32    34   am
    13    34    36    1
    14    36    37    1
    15    37    38   ar
    16    38    39   ar
    17    39    40   ar
    18    40    41   ar
    19    41    43    1
    20    43    44   ar
    21    44    45   ar
    22    45    46   ar
    23    46    47    1
    24    46    48   ar
    25    48    49   ar
    26    41    42   ar
    27     5     6   ar
    28     9    11    1
    29    11    13    1
    30    13    14    1
    31    14    15    1
    32    14    17    1
    33    17    18   ar
    34    18    19   ar
    35    19    20   ar
    36    20    21    1
    37    20    22   ar
    38    22    25    1
    39    25    27    1
    40    27    28    1
    41    27    29    2
    42    27    30    2
    43    22    23   ar
    44     6     1   ar
    45    23    17   ar
    46    42    37   ar
    47    49    43   ar
    48    34    35    1
    49    47    50    1
    50    11    12    1
    51    15    16    1
    52    21    24    1
    53    25    26    1
@<TRIPOS>MOLECULE
*****
 50 53 0 0 0
SMALL
GASTEIGER

@<TRIPOS>ATOM
      1 C         142.4995  144.4228  162.3426 C.ar    1  UNL1       -0.0212
      2 C         142.7882  145.1740  163.6084 C.ar    1  UNL1       -0.0042
      3 C         143.8814  144.7086  164.5240 C.ar    1  UNL1       -0.0006
      4 C         144.6859  143.4920  164.1737 C.ar    1  UNL1       -0.0038
      5 C         144.3972  142.7408  162.9078 C.ar    1  UNL1       -0.0134
      6 C         143.3040  143.2063  161.9923 C.ar    1  UNL1       -0.0080
      7 C         141.4063  144.8883  161.4270 C.3     1  UNL1        0.0407
      8 C         139.9639  146.2031  162.2579 C.3     1  UNL1        0.0161
      9 C         139.9717  144.7608  161.8462 C.3     1  UNL1        0.0461
     10 C         139.9796  143.3184  161.4346 C.3     1  UNL1        0.0161
     11 N         138.5371  144.6332  162.2655 N.3     1  UNL1       -0.2970
     12 H         138.0426  144.1890  161.4919 H       1  UNL1        0.1233
     13 C         138.1833  143.8644  163.5040 C.3     1  UNL1        0.1027
     14 C         138.8757  144.1689  164.7993 C.3     1  UNL1        0.1484
     15 O         138.5340  145.4176  165.5569 O.3     1  UNL1       -0.3786
     16 H         137.8525  145.9119  165.0750 H       1  UNL1        0.2108
     17 C         139.9099  143.2248  165.3369 C.ar    1  UNL1        0.0071
     18 C         140.5892  142.2537  164.4174 C.ar    1  UNL1        0.0013
     19 C         141.6234  141.3096  164.9550 C.ar    1  UNL1        0.0377
     20 C         141.9783  141.3365  166.4122 C.ar    1  UNL1        0.1481
     21 O         143.0125  140.3924  166.9498 O.3     1  UNL1       -0.5042
     22 C         141.2990  142.3076  167.3316 C.ar    1  UNL1        0.0977
     23 C         140.2648  143.2518  166.7940 C.ar    1  UNL1        0.0170
     24 H         143.4368  139.7858  166.3754 H       1  UNL1        0.2922
     25 N         141.6539  142.3346  168.7889 N.pl3   1  UNL1       -0.2158
     26 H         142.5838  142.1782  169.0720 H       1  UNL1        0.1735
     27 S         140.5921  142.5998  169.8146 S.O2    1  UNL1        0.0559
     28 C         139.5303  142.8651  170.8403 C.3     1  UNL1        0.1996
     29 O         141.2187  143.9280  170.1198 O.2     1  UNL1       -0.1544
     30 O         139.9655  141.2716  169.5094 O.2     1  UNL1       -0.1544
     31 C         145.2017  141.5242  162.5576 C.3     1  UNL1        0.1113
     32 C         144.5077  140.2524  162.1693 C.2     1  UNL1        0.2271
     33 O         144.3616  139.1427  163.1679 O.2     1  UNL1       -0.2747
     34 N         143.9597  140.0902  160.7824 N.am    1  UNL1       -0.3001
     35 H         144.0556  140.8186  160.1270 H       1  UNL1        0.1498
     36 C         143.2657  138.8183  160.3942 C.3     1  UNL1        0.1163
     37 C         141.7863  138.6786  160.5987 C.ar    1  UNL1       -0.0026
     38 C         140.8750  138.5434  159.4151 C.ar    1  UNL1       -0.0026
     39 C         139.3956  138.4037  159.6196 C.ar    1  UNL1       -0.0003
     40 C         138.8275  138.3992  161.0079 C.ar    1  UNL1       -0.0000
     41 C         139.7389  138.5344  162.1916 C.ar    1  UNL1       -0.0003
     42 C         141.2183  138.6741  161.9871 C.ar    1  UNL1       -0.0026
     43 C         139.1708  138.5299  163.5799 C.ar    1  UNL1        0.0002
     44 C         139.2350  137.2839  164.4125 C.ar    1  UNL1        0.0031
     45 C         138.6670  137.2794  165.8007 C.ar    1  UNL1        0.0366
     46 C         138.0347  138.5209  166.3564 C.ar    1  UNL1        0.1337
     47 O         137.4666  138.5164  167.7447 O.3     1  UNL1       -0.5055
     48 C         137.9705  139.7670  165.5238 C.ar    1  UNL1        0.0366
     49 C         138.5386  139.7714  164.1355 C.ar    1  UNL1        0.0031
     50 H         137.5067  137.7381  168.2647 H       1  UNL1        0.2922
@<TRIPOS>BOND
     1     8     9    1
     2     9    10    1
     3     9     7    1
     4     7     1    1
     5     1     2   ar
     6     2     3   ar
     7     3     4   ar
     8     4     5   ar
     9     5    31    1
    10    31    32    1
    11    32    33    2
    12    32    34   am
    13    34    36    1
    14    36    37    1
    15    37    38   ar
    16    38    39   ar
    17    39    40   ar
    18    40    41   ar
    19    41    43    1
    20    43    44   ar
    21    44    45   ar
    22    45    46   ar
    23    46    47    1
    24    46    48   ar
    25    48    49   ar
    26    41    42   ar
    27     5     6   ar
    28     9    11    1
    29    11    13    1
    30    13    14    1
    31    14    15    1
    32    14    17    1
    33    17    18   ar
    34    18    19   ar
    35    19    20   ar
    36    20    21    1
    37    20    22   ar
    38    22    25    1
    39    25    27    1
    40    27    28    1
    41    27    29    2
    42    27    30    2
    43    22    23   ar
    44     6     1   ar
    45    23    17   ar
    46    42    37   ar
    47    49    43   ar
    48    34    35    1
    49    47    50    1
    50    11    12    1
    51    15    16    1
    52    21    24    1
    53    25    26    1
@<TRIPOS>MOLECULE
*****
 50 53 0 0 0
SMALL
GASTEIGER

@<TRIPOS>ATOM
      1 C         144.2987  142.3765  161.6008 C.ar    1  UNL1       -0.0212
      2 C         144.2963  142.5654  160.1128 C.ar    1  UNL1       -0.0042
      3 C         144.1002  141.3857  159.2074 C.ar    1  UNL1       -0.0006
      4 C         143.9064  140.0171  159.7900 C.ar    1  UNL1       -0.0038
      5 C         143.9088  139.8282  161.2780 C.ar    1  UNL1       -0.0134
      6 C         144.1049  141.0079  162.1834 C.ar    1  UNL1       -0.0080
      7 C         144.4948  143.5562  162.5063 C.3     1  UNL1        0.0407
      8 C         142.5942  144.4330  162.1620 C.3     1  UNL1        0.0161
      9 C         143.3698  144.0264  163.3798 C.3     1  UNL1        0.0461
     10 C         144.1454  143.6199  164.5977 C.3     1  UNL1        0.0161
     11 N         142.2447  144.4967  164.2535 N.3     1  UNL1       -0.2970
     12 H         142.6087  145.2682  164.8126 H       1  UNL1        0.1233
     13 C         140.9650  144.9762  163.6350 C.3     1  UNL1        0.1027
     14 C         139.6489  144.4716  164.1481 C.3     1  UNL1        0.1484
     15 O         138.9606  145.1833  165.2749 O.3     1  UNL1       -0.3786
     16 H         139.4964  145.9425  165.5531 H       1  UNL1        0.2108
     17 C         139.0211  143.2554  163.5344 C.ar    1  UNL1        0.0071
     18 C         138.3989  142.2093  164.4110 C.ar    1  UNL1        0.0013
     19 C         137.7711  140.9930  163.7973 C.ar    1  UNL1        0.0377
     20 C         137.7655  140.8229  162.3070 C.ar    1  UNL1        0.1481
     21 O         137.1378  139.6066  161.6933 O.3     1  UNL1       -0.5042
     22 C         138.3878  141.8690  161.4304 C.ar    1  UNL1        0.0977
     23 C         139.0155  143.0852  162.0441 C.ar    1  UNL1        0.0170
     24 H         136.7491  138.9531  162.2409 H       1  UNL1        0.2922
     25 N         138.3822  141.6989  159.9401 N.pl3   1  UNL1       -0.2158
     26 H         137.9903  142.3965  159.3664 H       1  UNL1        0.1735
     27 S         138.9738  140.4660  159.3237 S.O2    1  UNL1        0.0559
     28 C         139.5654  139.2330  158.7074 C.3     1  UNL1        0.1996
     29 O         140.3311  140.8703  159.8177 O.2     1  UNL1       -0.1544
     30 O         137.6164  140.0616  158.8297 O.2     1  UNL1       -0.1544
     31 C         143.7150  138.4596  161.8607 C.3     1  UNL1        0.1113
     32 C         142.3473  138.0107  162.2821 C.2     1  UNL1        0.2271
     33 O         141.3593  137.5481  161.2525 O.2     1  UNL1       -0.2747
     34 N         141.9675  138.0242  163.7332 N.am    1  UNL1       -0.3001
     35 H         142.6159  138.3278  164.4089 H       1  UNL1        0.1498
     36 C         140.5996  137.5752  164.1546 C.3     1  UNL1        0.1163
     37 C         139.9191  138.2343  165.3176 C.ar    1  UNL1       -0.0026
     38 C         138.4912  137.9039  165.6367 C.ar    1  UNL1       -0.0026
     39 C         137.8107  138.5629  166.7997 C.ar    1  UNL1       -0.0003
     40 C         138.5581  139.5525  167.6435 C.ar    1  UNL1       -0.0000
     41 C         139.9861  139.8830  167.3244 C.ar    1  UNL1       -0.0003
     42 C         140.6666  139.2239  166.1615 C.ar    1  UNL1       -0.0026
     43 C         140.7335  140.8726  168.1683 C.ar    1  UNL1        0.0002
     44 C         142.1763  141.1651  167.8806 C.ar    1  UNL1        0.0031
     45 C         142.9237  142.1546  168.7244 C.ar    1  UNL1        0.0366
     46 C         142.2282  142.8517  169.8561 C.ar    1  UNL1        0.1337
     47 O         142.9756  143.8413  170.7000 O.3     1  UNL1       -0.5055
     48 C         140.7855  142.5592  170.1438 C.ar    1  UNL1        0.0366
     49 C         140.0381  141.5696  169.2999 C.ar    1  UNL1        0.0031
     50 H         143.8769  144.0240  170.5202 H       1  UNL1        0.2922
@<TRIPOS>BOND
     1     8     9    1
     2     9    10    1
     3     9     7    1
     4     7     1    1
     5     1     2   ar
     6     2     3   ar
     7     3     4   ar
     8     4     5   ar
     9     5    31    1
    10    31    32    1
    11    32    33    2
    12    32    34   am
    13    34    36    1
    14    36    37    1
    15    37    38   ar
    16    38    39   ar
    17    39    40   ar
    18    40    41   ar
    19    41    43    1
    20    43    44   ar
    21    44    45   ar
    22    45    46   ar
    23    46    47    1
    24    46    48   ar
    25    48    49   ar
    26    41    42   ar
    27     5     6   ar
    28     9    11    1
    29    11    13    1
    30    13    14    1
    31    14    15    1
    32    14    17    1
    33    17    18   ar
    34    18    19   ar
    35    19    20   ar
    36    20    21    1
    37    20    22   ar
    38    22    25    1
    39    25    27    1
    40    27    28    1
    41    27    29    2
    42    27    30    2
    43    22    23   ar
    44     6     1   ar
    45    23    17   ar
    46    42    37   ar
    47    49    43   ar
    48    34    35    1
    49    47    50    1
    50    11    12    1
    51    15    16    1
    52    21    24    1
    53    25    26    1
@<TRIPOS>MOLECULE
*****
 50 53 0 0 0
SMALL
GASTEIGER

@<TRIPOS>ATOM
      1 C         138.7038  143.4439  161.4346 C.ar    1  UNL1       -0.0212
      2 C         139.5853  143.6662  160.2416 C.ar    1  UNL1       -0.0042
      3 C         139.9639  142.5108  159.3631 C.ar    1  UNL1       -0.0006
      4 C         139.4610  141.1331  159.6778 C.ar    1  UNL1       -0.0038
      5 C         138.5795  140.9108  160.8708 C.ar    1  UNL1       -0.0134
      6 C         138.2009  142.0662  161.7493 C.ar    1  UNL1       -0.0080
      7 C         138.3252  144.5993  162.3132 C.3     1  UNL1        0.0407
      8 C         140.1778  145.2129  163.1445 C.3     1  UNL1        0.0161
      9 C         138.8832  144.6999  163.7018 C.3     1  UNL1        0.0461
     10 C         137.5885  144.1870  164.2592 C.3     1  UNL1        0.0161
     11 N         139.4411  144.8006  165.0906 N.3     1  UNL1       -0.2970
     12 H         138.6677  145.0664  165.7001 H       1  UNL1        0.1233
     13 C         140.1006  143.6104  165.7220 C.3     1  UNL1        0.1027
     14 C         140.4449  142.4129  164.8869 C.3     1  UNL1        0.1484
     15 O         139.4068  141.3651  164.6144 O.3     1  UNL1       -0.3786
     16 H         138.5752  141.6134  165.0476 H       1  UNL1        0.2108
     17 C         141.8273  142.2633  164.3243 C.ar    1  UNL1        0.0071
     18 C         143.0127  142.7389  165.1108 C.ar    1  UNL1        0.0013
     19 C         144.3951  142.5893  164.5482 C.ar    1  UNL1        0.0377
     20 C         144.5922  141.9640  163.1991 C.ar    1  UNL1        0.1481
     21 O         145.9746  141.8144  162.6365 O.3     1  UNL1       -0.5042
     22 C         143.4068  141.4884  162.4126 C.ar    1  UNL1        0.0977
     23 C         142.0244  141.6380  162.9752 C.ar    1  UNL1        0.0170
     24 H         146.7151  142.1115  163.1278 H       1  UNL1        0.2922
     25 N         143.6039  140.8631  161.0634 N.pl3   1  UNL1       -0.2158
     26 H         143.8176  141.4276  160.2856 H       1  UNL1        0.1735
     27 S         143.4753  139.3777  160.8992 S.O2    1  UNL1        0.0559
     28 C         143.3467  137.8923  160.7350 C.3     1  UNL1        0.1996
     29 O         144.4747  139.1697  161.9982 O.2     1  UNL1       -0.1544
     30 O         142.4758  139.5857  159.8002 O.2     1  UNL1       -0.1544
     31 C         138.0765  139.5331  161.1855 C.3     1  UNL1        0.1113
     32 C         138.8408  138.6531  162.1296 C.2     1  UNL1        0.2271
     33 O         139.8549  137.6844  161.5974 O.2     1  UNL1       -0.2747
     34 N         138.5910  138.7418  163.6060 N.am    1  UNL1       -0.3001
     35 H         137.9254  139.3776  163.9554 H       1  UNL1        0.1498
     36 C         139.3554  137.8618  164.5502 C.3     1  UNL1        0.1163
     37 C         140.6656  138.3261  165.1138 C.ar    1  UNL1       -0.0026
     38 C         141.9385  138.0678  164.3635 C.ar    1  UNL1       -0.0026
     39 C         143.2488  138.5321  164.9271 C.ar    1  UNL1       -0.0003
     40 C         143.2861  139.2548  166.2410 C.ar    1  UNL1       -0.0000
     41 C         142.0132  139.5131  166.9914 C.ar    1  UNL1       -0.0003
     42 C         140.7030  139.0488  166.4278 C.ar    1  UNL1       -0.0026
     43 C         142.0506  140.2357  168.3053 C.ar    1  UNL1        0.0002
     44 C         142.9830  141.3949  168.4974 C.ar    1  UNL1        0.0031
     45 C         143.0204  142.1175  169.8113 C.ar    1  UNL1        0.0366
     46 C         142.1253  141.6810  170.9331 C.ar    1  UNL1        0.1337
     47 O         142.1627  142.4036  172.2470 O.3     1  UNL1       -0.5055
     48 C         141.1929  140.5218  170.7410 C.ar    1  UNL1        0.0366
     49 C         141.1556  139.7992  169.4270 C.ar    1  UNL1        0.0031
     50 H         142.7451  143.1277  172.3671 H       1  UNL1        0.2922
@<TRIPOS>BOND
     1     8     9    1
     2     9    10    1
     3     9     7    1
     4     7     1    1
     5     1     2   ar
     6     2     3   ar
     7     3     4   ar
     8     4     5   ar
     9     5    31    1
    10    31    32    1
    11    32    33    2
    12    32    34   am
    13    34    36    1
    14    36    37    1
    15    37    38   ar
    16    38    39   ar
    17    39    40   ar
    18    40    41   ar
    19    41    43    1
    20    43    44   ar
    21    44    45   ar
    22    45    46   ar
    23    46    47    1
    24    46    48   ar
    25    48    49   ar
    26    41    42   ar
    27     5     6   ar
    28     9    11    1
    29    11    13    1
    30    13    14    1
    31    14    15    1
    32    14    17    1
    33    17    18   ar
    34    18    19   ar
    35    19    20   ar
    36    20    21    1
    37    20    22   ar
    38    22    25    1
    39    25    27    1
    40    27    28    1
    41    27    29    2
    42    27    30    2
    43    22    23   ar
    44     6     1   ar
    45    23    17   ar
    46    42    37   ar
    47    49    43   ar
    48    34    35    1
    49    47    50    1
    50    11    12    1
    51    15    16    1
    52    21    24    1
    53    25    26    1
@<TRIPOS>MOLECULE
*****
 50 53 0 0 0
SMALL
GASTEIGER

@<TRIPOS>ATOM
      1 C         140.2345  141.1551  158.1086 C.ar    1  UNL1       -0.0212
      2 C         139.4795  139.9689  157.5864 C.ar    1  UNL1       -0.0042
      3 C         140.0713  138.5951  157.6973 C.ar    1  UNL1       -0.0006
      4 C         141.4181  138.4075  158.3305 C.ar    1  UNL1       -0.0038
      5 C         142.1731  139.5937  158.8527 C.ar    1  UNL1       -0.0134
      6 C         141.5813  140.9675  158.7418 C.ar    1  UNL1       -0.0080
      7 C         139.6427  142.5291  157.9978 C.3     1  UNL1        0.0407
      8 C         140.7926  144.2656  158.4002 C.3     1  UNL1        0.0161
      9 C         139.7504  143.4870  159.1469 C.3     1  UNL1        0.0461
     10 C         138.7082  142.7085  159.8936 C.3     1  UNL1        0.0161
     11 N         139.8581  144.4451  160.2962 N.3     1  UNL1       -0.2970
     12 H         139.4776  143.9682  161.1136 H       1  UNL1        0.1233
     13 C         141.1976  144.9887  160.6964 C.3     1  UNL1        0.1027
     14 C         141.8663  144.4921  161.9438 C.3     1  UNL1        0.1484
     15 O         143.1913  145.0582  162.3606 O.3     1  UNL1       -0.3786
     16 H         143.4725  145.7292  161.7191 H       1  UNL1        0.2108
     17 C         141.2101  143.4292  162.7743 C.ar    1  UNL1        0.0071
     18 C         140.4890  143.8016  164.0357 C.ar    1  UNL1        0.0013
     19 C         139.8328  142.7388  164.8662 C.ar    1  UNL1        0.0377
     20 C         139.8977  141.3035  164.4353 C.ar    1  UNL1        0.1481
     21 O         139.2415  140.2407  165.2658 O.3     1  UNL1       -0.5042
     22 C         140.6188  140.9311  163.1739 C.ar    1  UNL1        0.0977
     23 C         141.2750  141.9939  162.3434 C.ar    1  UNL1        0.0170
     24 H         138.7910  140.4734  166.0538 H       1  UNL1        0.2922
     25 N         140.6838  139.4958  162.7429 N.pl3   1  UNL1       -0.2158
     26 H         141.5503  139.0294  162.7135 H       1  UNL1        0.1735
     27 S         139.4285  138.7711  162.3568 S.O2    1  UNL1        0.0559
     28 C         138.1733  138.0464  161.9707 C.3     1  UNL1        0.1996
     29 O         139.3595  139.5669  161.0873 O.2     1  UNL1       -0.1544
     30 O         139.4975  137.9752  163.6264 O.2     1  UNL1       -0.1544
     31 C         143.5199  139.4061  159.4859 C.3     1  UNL1        0.1113
     32 C         143.6229  139.0729  160.9448 C.2     1  UNL1        0.2271
     33 O         142.9313  137.8573  161.4871 O.2     1  UNL1       -0.2747
     34 N         144.4175  139.9552  161.8613 N.am    1  UNL1       -0.3001
     35 H         144.8715  140.7530  161.5054 H       1  UNL1        0.1498
     36 C         144.5206  139.6219  163.3203 C.3     1  UNL1        0.1163
     37 C         144.1187  140.6347  164.3511 C.ar    1  UNL1       -0.0026
     38 C         144.5104  142.0727  164.1823 C.ar    1  UNL1       -0.0026
     39 C         144.1085  143.0855  165.2132 C.ar    1  UNL1       -0.0003
     40 C         143.3148  142.6603  166.4129 C.ar    1  UNL1       -0.0000
     41 C         142.9231  141.2222  166.5817 C.ar    1  UNL1       -0.0003
     42 C         143.3250  140.2094  165.5509 C.ar    1  UNL1       -0.0026
     43 C         142.1294  140.7970  167.7814 C.ar    1  UNL1        0.0002
     44 C         142.6404  139.7007  168.6686 C.ar    1  UNL1        0.0031
     45 C         141.8467  139.2755  169.8683 C.ar    1  UNL1        0.0366
     46 C         140.5420  139.9465  170.1808 C.ar    1  UNL1        0.1337
     47 O         139.7484  139.5213  171.3804 O.3     1  UNL1       -0.5055
     48 C         140.0310  141.0427  169.2935 C.ar    1  UNL1        0.0366
     49 C         140.8248  141.4679  168.0938 C.ar    1  UNL1        0.0031
     50 H         140.0676  138.8365  171.9347 H       1  UNL1        0.2922
@<TRIPOS>BOND
     1     8     9    1
     2     9    10    1
     3     9     7    1
     4     7     1    1
     5     1     2   ar
     6     2     3   ar
     7     3     4   ar
     8     4     5   ar
     9     5    31    1
    10    31    32    1
    11    32    33    2
    12    32    34   am
    13    34    36    1
    14    36    37    1
    15    37    38   ar
    16    38    39   ar
    17    39    40   ar
    18    40    41   ar
    19    41    43    1
    20    43    44   ar
    21    44    45   ar
    22    45    46   ar
    23    46    47    1
    24    46    48   ar
    25    48    49   ar
    26    41    42   ar
    27     5     6   ar
    28     9    11    1
    29    11    13    1
    30    13    14    1
    31    14    15    1
    32    14    17    1
    33    17    18   ar
    34    18    19   ar
    35    19    20   ar
    36    20    21    1
    37    20    22   ar
    38    22    25    1
    39    25    27    1
    40    27    28    1
    41    27    29    2
    42    27    30    2
    43    22    23   ar
    44     6     1   ar
    45    23    17   ar
    46    42    37   ar
    47    49    43   ar
    48    34    35    1
    49    47    50    1
    50    11    12    1
    51    15    16    1
    52    21    24    1
    53    25    26    1
@<TRIPOS>MOLECULE
*****
 50 53 0 0 0
SMALL
GASTEIGER

@<TRIPOS>ATOM
      1 C         144.0732  143.2591  161.5957 C.ar    1  UNL1       -0.0212
      2 C         144.5052  142.7062  160.2700 C.ar    1  UNL1       -0.0042
      3 C         143.6292  142.8773  159.0645 C.ar    1  UNL1       -0.0006
      4 C         142.3211  143.6015  159.1847 C.ar    1  UNL1       -0.0038
      5 C         141.8890  144.1544  160.5104 C.ar    1  UNL1       -0.0134
      6 C         142.7650  143.9833  161.7159 C.ar    1  UNL1       -0.0080
      7 C         144.9492  143.0880  162.8012 C.3     1  UNL1        0.0407
      8 C         145.0780  140.9913  163.0964 C.3     1  UNL1        0.0161
      9 C         144.5446  142.1439  163.8944 C.3     1  UNL1        0.0461
     10 C         144.0113  143.2965  164.6924 C.3     1  UNL1        0.0161
     11 N         144.1400  141.1998  164.9876 N.3     1  UNL1       -0.2970
     12 H         143.1760  141.4272  165.2312 H       1  UNL1        0.1233
     13 C         144.1904  139.7187  164.7562 C.3     1  UNL1        0.1027
     14 C         143.1053  138.8373  165.2999 C.3     1  UNL1        0.1484
     15 O         143.2346  138.2492  166.6737 O.3     1  UNL1       -0.3786
     16 H         144.0719  138.5360  167.0707 H       1  UNL1        0.2108
     17 C         141.8909  138.5440  164.4698 C.ar    1  UNL1        0.0071
     18 C         140.9270  137.4786  164.9010 C.ar    1  UNL1        0.0013
     19 C         139.7126  137.1853  164.0709 C.ar    1  UNL1        0.0377
     20 C         139.4620  137.9574  162.8095 C.ar    1  UNL1        0.1481
     21 O         138.2476  137.6640  161.9793 O.3     1  UNL1       -0.5042
     22 C         140.4259  139.0227  162.3782 C.ar    1  UNL1        0.0977
     23 C         141.6403  139.3160  163.2084 C.ar    1  UNL1        0.0170
     24 H         137.6455  136.9986  162.2487 H       1  UNL1        0.2922
     25 N         140.1753  139.7948  161.1168 N.pl3   1  UNL1       -0.2158
     26 H         139.6598  140.6330  161.1469 H       1  UNL1        0.1735
     27 S         140.7102  139.2898  159.8096 S.O2    1  UNL1        0.0559
     28 C         141.2451  138.7847  158.5024 C.3     1  UNL1        0.1996
     29 O         142.0154  139.9786  160.0775 O.2     1  UNL1       -0.1544
     30 O         139.4050  138.6009  159.5416 O.2     1  UNL1       -0.1544
     31 C         140.5809  144.8785  160.6306 C.3     1  UNL1        0.1113
     32 C         139.5918  144.4709  161.6821 C.2     1  UNL1        0.2271
     33 O         138.3945  143.6487  161.3071 O.2     1  UNL1       -0.2747
     34 N         139.8000  144.8854  163.1086 N.am    1  UNL1       -0.3001
     35 H         140.5858  145.4250  163.3547 H       1  UNL1        0.1498
     36 C         138.8109  144.4778  164.1601 C.3     1  UNL1        0.1163
     37 C         138.8775  143.1047  164.7602 C.ar    1  UNL1       -0.0026
     38 C         137.9697  142.0216  164.2575 C.ar    1  UNL1       -0.0026
     39 C         138.0363  140.6485  164.8577 C.ar    1  UNL1       -0.0003
     40 C         139.0107  140.3585  165.9606 C.ar    1  UNL1       -0.0000
     41 C         139.9186  141.4416  166.4634 C.ar    1  UNL1       -0.0003
     42 C         139.8520  142.8147  165.8632 C.ar    1  UNL1       -0.0026
     43 C         140.8930  141.1516  167.5662 C.ar    1  UNL1        0.0002
     44 C         140.6905  139.9575  168.4512 C.ar    1  UNL1        0.0031
     45 C         141.6649  139.6675  169.5541 C.ar    1  UNL1        0.0366
     46 C         142.8419  140.5716  169.7720 C.ar    1  UNL1        0.1337
     47 O         143.8163  140.2816  170.8749 O.3     1  UNL1       -0.5055
     48 C         143.0443  141.7657  168.8871 C.ar    1  UNL1        0.0366
     49 C         142.0699  142.0557  167.7841 C.ar    1  UNL1        0.0031
     50 H         143.6898  139.5357  171.4277 H       1  UNL1        0.2922
@<TRIPOS>BOND
     1     8     9    1
     2     9    10    1
     3     9     7    1
     4     7     1    1
     5     1     2   ar
     6     2     3   ar
     7     3     4   ar
     8     4     5   ar
     9     5    31    1
    10    31    32    1
    11    32    33    2
    12    32    34   am
    13    34    36    1
    14    36    37    1
    15    37    38   ar
    16    38    39   ar
    17    39    40   ar
    18    40    41   ar
    19    41    43    1
    20    43    44   ar
    21    44    45   ar
    22    45    46   ar
    23    46    47    1
    24    46    48   ar
    25    48    49   ar
    26    41    42   ar
    27     5     6   ar
    28     9    11    1
    29    11    13    1
    30    13    14    1
    31    14    15    1
    32    14    17    1
    33    17    18   ar
    34    18    19   ar
    35    19    20   ar
    36    20    21    1
    37    20    22   ar
    38    22    25    1
    39    25    27    1
    40    27    28    1
    41    27    29    2
    42    27    30    2
    43    22    23   ar
    44     6     1   ar
    45    23    17   ar
    46    42    37   ar
    47    49    43   ar
    48    34    35    1
    49    47    50    1
    50    11    12    1
    51    15    16    1
    52    21    24    1
    53    25    26    1
@<TRIPOS>MOLECULE
*****
 50 53 0 0 0
SMALL
GASTEIGER

@<TRIPOS>ATOM
      1 C         142.4675  141.3645  158.9476 C.ar    1  UNL1       -0.0212
      2 C         141.4065  141.2044  157.8995 C.ar    1  UNL1       -0.0042
      3 C         140.7273  139.8796  157.7161 C.ar    1  UNL1       -0.0006
      4 C         141.1092  138.7150  158.5808 C.ar    1  UNL1       -0.0038
      5 C         142.1702  138.8751  159.6290 C.ar    1  UNL1       -0.0134
      6 C         142.8493  140.1999  159.8123 C.ar    1  UNL1       -0.0080
      7 C         143.1467  142.6894  159.1310 C.3     1  UNL1        0.0407
      8 C         142.0743  143.7844  160.5975 C.3     1  UNL1        0.0161
      9 C         143.4497  143.1921  160.5113 C.3     1  UNL1        0.0461
     10 C         144.8251  142.5998  160.4251 C.3     1  UNL1        0.0161
     11 N         143.7528  143.6949  161.8917 N.3     1  UNL1       -0.2970
     12 H         142.8659  143.9932  162.2978 H       1  UNL1        0.1233
     13 C         144.4047  142.7887  162.8936 C.3     1  UNL1        0.1027
     14 C         143.5609  141.9715  163.8265 C.3     1  UNL1        0.1484
     15 O         144.1611  140.8046  164.5531 O.3     1  UNL1       -0.3786
     16 H         145.0958  140.7176  164.3087 H       1  UNL1        0.2108
     17 C         142.1169  142.3213  164.0327 C.ar    1  UNL1        0.0071
     18 C         141.7290  143.3134  165.0887 C.ar    1  UNL1        0.0013
     19 C         140.2850  143.6632  165.2949 C.ar    1  UNL1        0.0377
     20 C         139.2289  143.0209  164.4452 C.ar    1  UNL1        0.1481
     21 O         137.7849  143.3706  164.6514 O.3     1  UNL1       -0.5042
     22 C         139.6169  142.0287  163.3892 C.ar    1  UNL1        0.0977
     23 C         141.0609  141.6789  163.1830 C.ar    1  UNL1        0.0170
     24 H         137.5426  143.9904  165.3111 H       1  UNL1        0.2922
     25 N         138.5608  141.3863  162.5394 N.pl3   1  UNL1       -0.2158
     26 H         137.9656  140.7040  162.9260 H       1  UNL1        0.1735
     27 S         138.4116  141.7834  161.1007 S.O2    1  UNL1        0.0559
     28 C         138.2624  142.1806  159.6620 C.3     1  UNL1        0.1996
     29 O         139.1392  140.5403  160.6821 O.2     1  UNL1       -0.1544
     30 O         137.6840  143.0265  161.5193 O.2     1  UNL1       -0.1544
     31 C         142.5520  137.7105  160.4937 C.3     1  UNL1        0.1113
     32 C         142.7591  137.9059  161.9664 C.2     1  UNL1        0.2271
     33 O         143.9667  138.6448  162.4624 O.2     1  UNL1       -0.2747
     34 N         141.7588  137.3625  162.9431 N.am    1  UNL1       -0.3001
     35 H         140.9663  136.8775  162.6176 H       1  UNL1        0.1498
     36 C         141.9660  137.5579  164.4159 C.3     1  UNL1        0.1163
     37 C         141.0550  138.4661  165.1874 C.ar    1  UNL1       -0.0026
     38 C         139.5769  138.4375  164.9338 C.ar    1  UNL1       -0.0026
     39 C         138.6658  139.3457  165.7053 C.ar    1  UNL1       -0.0003
     40 C         139.2329  140.2825  166.7304 C.ar    1  UNL1       -0.0000
     41 C         140.7111  140.3111  166.9840 C.ar    1  UNL1       -0.0003
     42 C         141.6221  139.4029  166.2125 C.ar    1  UNL1       -0.0026
     43 C         141.2782  141.2479  168.0090 C.ar    1  UNL1        0.0002
     44 C         140.3662  142.1497  168.7869 C.ar    1  UNL1        0.0031
     45 C         140.9333  143.0866  169.8119 C.ar    1  UNL1        0.0366
     46 C         142.4124  143.1216  170.0592 C.ar    1  UNL1        0.1337
     47 O         142.9795  144.0584  171.0842 O.3     1  UNL1       -0.5055
     48 C         143.3244  142.2197  169.2813 C.ar    1  UNL1        0.0366
     49 C         142.7572  141.2829  168.2562 C.ar    1  UNL1        0.0031
     50 H         142.4098  144.6217  171.5701 H       1  UNL1        0.2922
@<TRIPOS>BOND
     1     8     9    1
     2     9    10    1
     3     9     7    1
     4     7     1    1
     5     1     2   ar
     6     2     3   ar
     7     3     4   ar
     8     4     5   ar
     9     5    31    1
    10    31    32    1
    11    32    33    2
    12    32    34   am
    13    34    36    1
    14    36    37    1
    15    37    38   ar
    16    38    39   ar
    17    39    40   ar
    18    40    41   ar
    19    41    43    1
    20    43    44   ar
    21    44    45   ar
    22    45    46   ar
    23    46    47    1
    24    46    48   ar
    25    48    49   ar
    26    41    42   ar
    27     5     6   ar
    28     9    11    1
    29    11    13    1
    30    13    14    1
    31    14    15    1
    32    14    17    1
    33    17    18   ar
    34    18    19   ar
    35    19    20   ar
    36    20    21    1
    37    20    22   ar
    38    22    25    1
    39    25    27    1
    40    27    28    1
    41    27    29    2
    42    27    30    2
    43    22    23   ar
    44     6     1   ar
    45    23    17   ar
    46    42    37   ar
    47    49    43   ar
    48    34    35    1
    49    47    50    1
    50    11    12    1
    51    15    16    1
    52    21    24    1
    53    25    26    1
