@<TRIPOS>MOLECULE
*****
 36 40 0 0 0
SMALL
GASTEIGER

@<TRIPOS>ATOM
      1 C         139.0100  139.6169  168.2417 C.ar    1  UNL1        0.1020
      2 C         140.0960  139.8970  167.2456 C.ar    1  UNL1        0.0205
      3 C         140.0055  139.3325  165.8589 C.ar    1  UNL1        0.0002
      4 C         138.8290  138.4879  165.4681 C.ar    1  UNL1        0.0130
      5 C         137.7430  138.2078  166.4642 C.ar    1  UNL1        0.0959
      6 N         137.8335  138.7724  167.8510 N.ar    1  UNL1       -0.2425
      7 N         138.0898  139.7892  170.6653 N.2     1  UNL1       -0.0815
      8 C         139.1004  140.1814  169.6285 C.2     1  UNL1        0.1369
      9 C         140.2014  141.1381  169.9785 C.ar    1  UNL1        0.0247
     10 C         141.5512  140.6163  170.3730 C.ar    1  UNL1        0.0041
     11 C         142.6522  141.5730  170.7230 C.ar    1  UNL1        0.0320
     12 C         142.4034  143.0515  170.6785 C.ar    1  UNL1        0.1674
     13 F         143.5044  144.0083  171.0285 F       1  UNL1       -0.2018
     14 C         141.0535  143.5734  170.2839 C.ar    1  UNL1        0.1674
     15 F         140.8047  145.0519  170.2395 F       1  UNL1       -0.2018
     16 C         139.9525  142.6167  169.9339 C.ar    1  UNL1        0.0336
     17 O         136.9888  138.8325  170.3153 O.2     1  UNL1       -0.3773
     18 C         136.2413  137.2515  172.2367 C.3     1  UNL1        0.0543
     19 C         135.9816  138.4359  171.3536 C.3     1  UNL1        0.2386
     20 C         138.7386  137.9234  164.0814 C.3     1  UNL1        0.1007
     21 N         138.7383  138.8426  162.8960 N.3     1  UNL1       -0.2687
     22 C         139.6686  140.0186  162.8586 C.3     1  UNL1        0.0751
     23 C         139.6684  140.9378  161.6733 C.3     1  UNL1        0.0489
     24 C         138.7378  140.6809  160.5252 C.3     1  UNL1        0.1157
     25 C         137.8075  139.5048  160.5625 C.3     1  UNL1        0.0489
     26 C         137.8078  138.5857  161.7479 C.3     1  UNL1        0.0751
     27 O         137.8684  140.5518  159.3096 O.3     1  UNL1       -0.3496
     28 C         138.2002  141.6817  158.3804 C.3     1  UNL1        0.1688
     29 C         139.2746  142.5090  159.0217 C.ar    1  UNL1        0.0117
     30 C         139.9934  143.7457  158.5699 C.ar    1  UNL1        0.0587
     31 C         141.0442  144.3638  159.4436 C.ar    1  UNL1        0.2608
     32 O         141.7630  145.6004  158.9918 O.2     1  UNL1       -0.2670
     33 N         141.3765  143.7453  160.7692 N.ar    1  UNL1       -0.2924
     34 C         142.4274  144.3634  161.6428 C.3     1  UNL1        0.1336
     35 C         140.6578  142.5086  161.2209 C.ar    1  UNL1        0.0760
     36 C         139.6069  141.8905  160.3472 C.ar    1  UNL1        0.0179
@<TRIPOS>BOND
     1    18    19    1
     2    19    17    1
     3    17     7    1
     4     7     8    2
     5     8     9    1
     6     9    10   ar
     7    10    11   ar
     8    11    12   ar
     9    12    13    1
    10    12    14   ar
    11    14    15    1
    12    14    16   ar
    13     8     1    1
    14     1     2   ar
    15     2     3   ar
    16     3     4   ar
    17     4    20    1
    18    20    21    1
    19    21    22    1
    20    22    23    1
    21    23    24    1
    22    24    25    1
    23    25    26    1
    24    24    27    1
    25    27    28    1
    26    28    29    1
    27    29    30   ar
    28    30    31   ar
    29    31    32    2
    30    31    33   ar
    31    33    34    1
    32    33    35   ar
    33    35    36   ar
    34     4     5   ar
    35     5     6   ar
    36    16     9   ar
    37     6     1   ar
    38    26    21    1
    39    36    29   ar
    40    36    24    1
@<TRIPOS>MOLECULE
*****
 36 40 0 0 0
SMALL
GASTEIGER

@<TRIPOS>ATOM
      1 C         144.1212  141.9302  159.7068 C.ar    1  UNL1        0.1020
      2 C         143.4780  140.5752  159.7199 C.ar    1  UNL1        0.0205
      3 C         143.5229  139.7357  160.9621 C.ar    1  UNL1        0.0002
      4 C         144.2109  140.2512  162.1913 C.ar    1  UNL1        0.0130
      5 C         144.8541  141.6063  162.1782 C.ar    1  UNL1        0.0959
      6 N         144.8093  142.4458  160.9359 N.ar    1  UNL1       -0.2425
      7 N         143.2296  144.0073  158.4258 N.2     1  UNL1       -0.0815
      8 C         144.0764  142.7697  158.4645 C.2     1  UNL1        0.1369
      9 C         144.8783  142.3717  157.2610 C.ar    1  UNL1        0.0247
     10 C         144.1832  141.8868  156.0234 C.ar    1  UNL1        0.0041
     11 C         144.9851  141.4887  154.8199 C.ar    1  UNL1        0.0320
     12 C         146.4821  141.5756  154.8539 C.ar    1  UNL1        0.1674
     13 F         147.2841  141.1776  153.6503 F       1  UNL1       -0.2018
     14 C         147.1774  142.0606  156.0915 C.ar    1  UNL1        0.1674
     15 F         148.6744  142.1474  156.1255 F       1  UNL1       -0.2018
     16 C         146.3754  142.4586  157.2950 C.ar    1  UNL1        0.0336
     17 O         142.4277  144.4053  159.6293 O.2     1  UNL1       -0.3773
     18 C         140.2449  145.3777  160.6490 C.3     1  UNL1        0.0543
     19 C         141.1131  145.1066  159.4562 C.3     1  UNL1        0.2386
     20 C         144.2558  139.4118  163.4336 C.3     1  UNL1        0.1007
     21 N         143.1522  139.5092  164.4449 N.3     1  UNL1       -0.2687
     22 C         143.3661  140.2746  165.7170 C.3     1  UNL1        0.0751
     23 C         142.2626  140.3720  166.7283 C.3     1  UNL1        0.0489
     24 C         140.9451  139.7040  166.4674 C.3     1  UNL1        0.1157
     25 C         140.7312  138.9386  165.1952 C.3     1  UNL1        0.0489
     26 C         141.8347  138.8412  164.1840 C.3     1  UNL1        0.0751
     27 O         139.5812  139.0917  166.3457 O.3     1  UNL1       -0.3496
     28 C         138.8048  139.4401  167.5811 C.3     1  UNL1        0.1688
     29 C         139.6890  140.2677  168.4662 C.ar    1  UNL1        0.0117
     30 C         139.4605  140.8938  169.8099 C.ar    1  UNL1        0.0587
     31 C         140.5547  141.6830  170.4654 C.ar    1  UNL1        0.2608
     32 O         140.3262  142.3092  171.8092 O.2     1  UNL1       -0.2670
     33 N         141.8775  141.8462  169.7772 N.ar    1  UNL1       -0.2924
     34 C         142.9717  142.6354  170.4326 C.3     1  UNL1        0.1336
     35 C         142.1060  141.2200  168.4334 C.ar    1  UNL1        0.0760
     36 C         141.0117  140.4308  167.7779 C.ar    1  UNL1        0.0179
@<TRIPOS>BOND
     1    18    19    1
     2    19    17    1
     3    17     7    1
     4     7     8    2
     5     8     9    1
     6     9    10   ar
     7    10    11   ar
     8    11    12   ar
     9    12    13    1
    10    12    14   ar
    11    14    15    1
    12    14    16   ar
    13     8     1    1
    14     1     2   ar
    15     2     3   ar
    16     3     4   ar
    17     4    20    1
    18    20    21    1
    19    21    22    1
    20    22    23    1
    21    23    24    1
    22    24    25    1
    23    25    26    1
    24    24    27    1
    25    27    28    1
    26    28    29    1
    27    29    30   ar
    28    30    31   ar
    29    31    32    2
    30    31    33   ar
    31    33    34    1
    32    33    35   ar
    33    35    36   ar
    34     4     5   ar
    35     5     6   ar
    36    16     9   ar
    37     6     1   ar
    38    26    21    1
    39    36    29   ar
    40    36    24    1
@<TRIPOS>MOLECULE
*****
 36 40 0 0 0
SMALL
GASTEIGER

@<TRIPOS>ATOM
      1 C         141.3211  143.7356  161.2573 C.ar    1  UNL1        0.1020
      2 C         140.8219  142.3236  161.1739 C.ar    1  UNL1        0.0205
      3 C         141.5765  141.2199  161.8538 C.ar    1  UNL1        0.0002
      4 C         142.8304  141.5282  162.6172 C.ar    1  UNL1        0.0130
      5 C         143.3296  142.9402  162.7007 C.ar    1  UNL1        0.0959
      6 N         142.5749  144.0439  162.0207 N.ar    1  UNL1       -0.2425
      7 N         139.5563  145.6404  161.3442 N.2     1  UNL1       -0.0815
      8 C         140.5665  144.8393  160.5774 C.2     1  UNL1        0.1369
      9 C         140.8219  145.1420  159.1306 C.ar    1  UNL1        0.0247
     10 C         142.0066  144.5387  158.4360 C.ar    1  UNL1        0.0041
     11 C         142.2620  144.8414  156.9892 C.ar    1  UNL1        0.0320
     12 C         141.3328  145.7473  156.2371 C.ar    1  UNL1        0.1674
     13 F         141.5882  146.0500  154.7903 F       1  UNL1       -0.2018
     14 C         140.1480  146.3506  156.9317 C.ar    1  UNL1        0.1674
     15 F         139.2187  147.2565  156.1796 F       1  UNL1       -0.2018
     16 C         139.8926  146.0479  158.3785 C.ar    1  UNL1        0.0336
     17 O         139.3009  145.3377  162.7910 O.2     1  UNL1       -0.3773
     18 C         138.3746  143.1551  163.8531 C.3     1  UNL1        0.0543
     19 C         138.1374  144.4759  163.1829 C.3     1  UNL1        0.2386
     20 C         143.5851  140.4245  163.2972 C.3     1  UNL1        0.1007
     21 N         143.3428  140.1338  164.7487 N.3     1  UNL1       -0.2687
     22 C         142.6340  141.1392  165.6069 C.3     1  UNL1        0.0751
     23 C         142.3917  140.8484  167.0583 C.3     1  UNL1        0.0489
     24 C         142.8584  139.5522  167.6516 C.3     1  UNL1        0.1157
     25 C         143.5672  138.5467  166.7934 C.3     1  UNL1        0.0489
     26 C         143.8095  138.8375  165.3420 C.3     1  UNL1        0.0751
     27 O         143.2651  138.3062  168.3810 O.3     1  UNL1       -0.3496
     28 C         142.8250  138.4403  169.8088 C.3     1  UNL1        0.1688
     29 C         142.1463  139.7692  169.9617 C.ar    1  UNL1        0.0117
     30 C         141.5121  140.4424  171.1427 C.ar    1  UNL1        0.0587
     31 C         140.8987  141.8026  170.9905 C.ar    1  UNL1        0.2608
     32 O         140.2645  142.4758  172.1715 O.2     1  UNL1       -0.2670
     33 N         140.9193  142.4899  169.6573 N.ar    1  UNL1       -0.2924
     34 C         140.3058  143.8501  169.5052 C.3     1  UNL1        0.1336
     35 C         141.5534  141.8167  168.4764 C.ar    1  UNL1        0.0760
     36 C         142.1669  140.4564  168.6286 C.ar    1  UNL1        0.0179
@<TRIPOS>BOND
     1    18    19    1
     2    19    17    1
     3    17     7    1
     4     7     8    2
     5     8     9    1
     6     9    10   ar
     7    10    11   ar
     8    11    12   ar
     9    12    13    1
    10    12    14   ar
    11    14    15    1
    12    14    16   ar
    13     8     1    1
    14     1     2   ar
    15     2     3   ar
    16     3     4   ar
    17     4    20    1
    18    20    21    1
    19    21    22    1
    20    22    23    1
    21    23    24    1
    22    24    25    1
    23    25    26    1
    24    24    27    1
    25    27    28    1
    26    28    29    1
    27    29    30   ar
    28    30    31   ar
    29    31    32    2
    30    31    33   ar
    31    33    34    1
    32    33    35   ar
    33    35    36   ar
    34     4     5   ar
    35     5     6   ar
    36    16     9   ar
    37     6     1   ar
    38    26    21    1
    39    36    29   ar
    40    36    24    1
@<TRIPOS>MOLECULE
*****
 36 40 0 0 0
SMALL
GASTEIGER

@<TRIPOS>ATOM
      1 C         139.0111  139.5834  168.2104 C.ar    1  UNL1        0.1020
      2 C         140.0916  139.8464  167.2039 C.ar    1  UNL1        0.0205
      3 C         140.0098  139.2323  165.8379 C.ar    1  UNL1        0.0002
      4 C         138.8474  138.3550  165.4783 C.ar    1  UNL1        0.0130
      5 C         137.7668  138.0919  166.4849 C.ar    1  UNL1        0.0959
      6 N         137.8487  138.7061  167.8510 N.ar    1  UNL1       -0.2425
      7 N         138.0693  139.8513  170.6170 N.2     1  UNL1       -0.0815
      8 C         139.0929  140.1975  169.5765 C.2     1  UNL1        0.1369
      9 C         140.1982  141.1579  169.9021 C.ar    1  UNL1        0.0247
     10 C         141.5696  140.6421  170.2230 C.ar    1  UNL1        0.0041
     11 C         142.6749  141.6024  170.5485 C.ar    1  UNL1        0.0320
     12 C         142.4088  143.0786  170.5532 C.ar    1  UNL1        0.1674
     13 F         143.5141  144.0390  170.8788 F       1  UNL1       -0.2018
     14 C         141.0373  143.5945  170.2323 C.ar    1  UNL1        0.1674
     15 F         140.7711  145.0706  170.2370 F       1  UNL1       -0.2018
     16 C         139.9320  142.6341  169.9068 C.ar    1  UNL1        0.0336
     17 O         136.9640  138.8910  170.2914 O.2     1  UNL1       -0.3773
     18 C         136.2078  137.2166  172.1284 C.3     1  UNL1        0.0543
     19 C         135.9878  138.4826  171.3545 C.3     1  UNL1        0.2386
     20 C         138.7656  137.7409  164.1123 C.3     1  UNL1        0.1007
     21 N         138.8455  138.6107  162.8928 N.3     1  UNL1       -0.2687
     22 C         139.7677  138.2430  161.7684 C.3     1  UNL1        0.0751
     23 C         139.8476  139.1129  160.5491 C.3     1  UNL1        0.0489
     24 C         139.0054  140.3505  160.4541 C.3     1  UNL1        0.1157
     25 C         138.0833  140.7182  161.5785 C.3     1  UNL1        0.0489
     26 C         138.0033  139.8483  162.7979 C.3     1  UNL1        0.0751
     27 O         138.2283  141.6116  160.2182 O.3     1  UNL1       -0.3496
     28 C         138.6191  142.1525  158.8748 C.3     1  UNL1        0.1688
     29 C         139.6378  141.2256  158.2804 C.ar    1  UNL1        0.0117
     30 C         140.3789  141.2519  156.9765 C.ar    1  UNL1        0.0587
     31 C         141.3586  140.1645  156.6486 C.ar    1  UNL1        0.2608
     32 O         142.0996  140.1907  155.3448 O.2     1  UNL1       -0.2670
     33 N         141.5974  139.0507  157.6247 N.ar    1  UNL1       -0.2924
     34 C         142.5771  137.9633  157.2969 C.3     1  UNL1        0.1336
     35 C         140.8563  139.0245  158.9286 C.ar    1  UNL1        0.0760
     36 C         139.8766  140.1119  159.2564 C.ar    1  UNL1        0.0179
@<TRIPOS>BOND
     1    18    19    1
     2    19    17    1
     3    17     7    1
     4     7     8    2
     5     8     9    1
     6     9    10   ar
     7    10    11   ar
     8    11    12   ar
     9    12    13    1
    10    12    14   ar
    11    14    15    1
    12    14    16   ar
    13     8     1    1
    14     1     2   ar
    15     2     3   ar
    16     3     4   ar
    17     4    20    1
    18    20    21    1
    19    21    22    1
    20    22    23    1
    21    23    24    1
    22    24    25    1
    23    25    26    1
    24    24    27    1
    25    27    28    1
    26    28    29    1
    27    29    30   ar
    28    30    31   ar
    29    31    32    2
    30    31    33   ar
    31    33    34    1
    32    33    35   ar
    33    35    36   ar
    34     4     5   ar
    35     5     6   ar
    36    16     9   ar
    37     6     1   ar
    38    26    21    1
    39    36    29   ar
    40    36    24    1
@<TRIPOS>MOLECULE
*****
 36 40 0 0 0
SMALL
GASTEIGER

@<TRIPOS>ATOM
      1 C         142.5763  136.8866  157.1844 C.ar    1  UNL1        0.1020
      2 C         141.2110  137.2342  156.6695 C.ar    1  UNL1        0.0205
      3 C         140.3205  138.1455  157.4610 C.ar    1  UNL1        0.0002
      4 C         140.7952  138.7091  158.7675 C.ar    1  UNL1        0.0130
      5 C         142.1605  138.3615  159.2825 C.ar    1  UNL1        0.0959
      6 N         143.0510  137.4502  158.4909 N.ar    1  UNL1       -0.2425
      7 N         144.5934  136.5454  155.5829 N.2     1  UNL1       -0.0815
      8 C         143.4668  135.9754  156.3929 C.2     1  UNL1        0.1369
      9 C         143.2309  134.4942  156.4113 C.ar    1  UNL1        0.0247
     10 C         142.1448  133.8972  155.5663 C.ar    1  UNL1        0.0041
     11 C         141.9089  132.4160  155.5847 C.ar    1  UNL1        0.0320
     12 C         142.7589  131.5318  156.4482 C.ar    1  UNL1        0.1674
     13 F         142.5230  130.0506  156.4666 F       1  UNL1       -0.2018
     14 C         143.8451  132.1288  157.2932 C.ar    1  UNL1        0.1674
     15 F         144.6951  131.2446  158.1566 F       1  UNL1       -0.2018
     16 C         144.0810  133.6100  157.2748 C.ar    1  UNL1        0.0336
     17 O         144.8294  138.0266  155.5644 O.2     1  UNL1       -0.3773
     18 C         143.9194  140.3302  154.7800 C.3     1  UNL1        0.0543
     19 C         144.1782  138.8768  154.5142 C.3     1  UNL1        0.2386
     20 C         139.9047  139.6204  159.5591 C.3     1  UNL1        0.1007
     21 N         139.6328  139.3325  161.0059 N.3     1  UNL1       -0.2687
     22 C         140.0327  140.3258  162.0563 C.3     1  UNL1        0.0751
     23 C         139.7608  140.0379  163.5030 C.3     1  UNL1        0.0489
     24 C         139.0890  138.7567  163.8994 C.3     1  UNL1        0.1157
     25 C         138.6890  137.7634  162.8490 C.3     1  UNL1        0.0489
     26 C         138.9609  138.0513  161.4023 C.3     1  UNL1        0.0751
     27 O         138.4285  137.5250  164.4443 O.3     1  UNL1       -0.3496
     28 C         138.3611  137.6570  165.9371 C.3     1  UNL1        0.1688
     29 C         138.9800  138.9703  166.3147 C.ar    1  UNL1        0.0117
     30 C         139.1920  139.6350  167.6425 C.ar    1  UNL1        0.0587
     31 C         139.8538  140.9793  167.7110 C.ar    1  UNL1        0.2608
     32 O         140.0658  141.6441  169.0388 O.2     1  UNL1       -0.2670
     33 N         140.3037  141.6590  166.4517 N.ar    1  UNL1       -0.2924
     34 C         140.9654  143.0032  166.5203 C.3     1  UNL1        0.1336
     35 C         140.0916  140.9942  165.1239 C.ar    1  UNL1        0.0760
     36 C         139.4298  139.6499  165.0554 C.ar    1  UNL1        0.0179
@<TRIPOS>BOND
     1    18    19    1
     2    19    17    1
     3    17     7    1
     4     7     8    2
     5     8     9    1
     6     9    10   ar
     7    10    11   ar
     8    11    12   ar
     9    12    13    1
    10    12    14   ar
    11    14    15    1
    12    14    16   ar
    13     8     1    1
    14     1     2   ar
    15     2     3   ar
    16     3     4   ar
    17     4    20    1
    18    20    21    1
    19    21    22    1
    20    22    23    1
    21    23    24    1
    22    24    25    1
    23    25    26    1
    24    24    27    1
    25    27    28    1
    26    28    29    1
    27    29    30   ar
    28    30    31   ar
    29    31    32    2
    30    31    33   ar
    31    33    34    1
    32    33    35   ar
    33    35    36   ar
    34     4     5   ar
    35     5     6   ar
    36    16     9   ar
    37     6     1   ar
    38    26    21    1
    39    36    29   ar
    40    36    24    1
@<TRIPOS>MOLECULE
*****
 36 40 0 0 0
SMALL
GASTEIGER

@<TRIPOS>ATOM
      1 C         142.3880  137.0142  157.2593 C.ar    1  UNL1        0.1020
      2 C         141.0159  137.2721  156.7110 C.ar    1  UNL1        0.0205
      3 C         140.0579  138.1444  157.4668 C.ar    1  UNL1        0.0002
      4 C         140.4720  138.7588  158.7711 C.ar    1  UNL1        0.0130
      5 C         141.8441  138.5009  159.3194 C.ar    1  UNL1        0.0959
      6 N         142.8022  137.6286  158.5635 N.ar    1  UNL1       -0.2425
      7 N         144.4737  136.7600  155.7311 N.2     1  UNL1       -0.0815
      8 C         143.3461  136.1420  156.5035 C.2     1  UNL1        0.1369
      9 C         143.1765  134.6517  156.5200 C.ar    1  UNL1        0.0247
     10 C         142.1098  134.0089  155.6840 C.ar    1  UNL1        0.0041
     11 C         141.9403  132.5186  155.7006 C.ar    1  UNL1        0.0320
     12 C         142.8374  131.6711  156.5531 C.ar    1  UNL1        0.1674
     13 F         142.6679  130.1808  156.5696 F       1  UNL1       -0.2018
     14 C         143.9042  132.3139  157.3891 C.ar    1  UNL1        0.1674
     15 F         144.8014  131.4664  158.2416 F       1  UNL1       -0.2018
     16 C         144.0738  133.8042  157.3726 C.ar    1  UNL1        0.0336
     17 O         144.6432  138.2503  155.7145 O.2     1  UNL1       -0.3773
     18 C         142.9912  138.5071  153.7258 C.3     1  UNL1        0.0543
     19 C         144.1065  139.0535  154.5671 C.3     1  UNL1        0.2386
     20 C         139.5140  139.6310  159.5269 C.3     1  UNL1        0.1007
     21 N         139.8673  140.1183  160.9009 N.3     1  UNL1       -0.2687
     22 C         139.2090  139.5112  162.1042 C.3     1  UNL1        0.0751
     23 C         139.5623  139.9985  163.4782 C.3     1  UNL1        0.0489
     24 C         140.5740  141.0928  163.6487 C.3     1  UNL1        0.1157
     25 C         141.2323  141.6998  162.4454 C.3     1  UNL1        0.0489
     26 C         140.8789  141.2126  161.0715 C.3     1  UNL1        0.0751
     27 O         141.5617  142.1739  163.9739 O.3     1  UNL1       -0.3496
     28 C         141.5998  142.3338  165.4650 C.3     1  UNL1        0.1688
     29 C         140.6356  141.3514  166.0613 C.ar    1  UNL1        0.0117
     30 C         140.2530  141.0563  167.4813 C.ar    1  UNL1        0.0587
     31 C         139.2365  139.9942  167.7789 C.ar    1  UNL1        0.2608
     32 O         138.8540  139.6990  169.1989 O.2     1  UNL1       -0.2670
     33 N         138.6025  139.2272  166.6564 N.ar    1  UNL1       -0.2924
     34 C         137.5860  138.1652  166.9540 C.3     1  UNL1        0.1336
     35 C         138.9851  139.5224  165.2364 C.ar    1  UNL1        0.0760
     36 C         140.0016  140.5845  164.9388 C.ar    1  UNL1        0.0179
@<TRIPOS>BOND
     1    18    19    1
     2    19    17    1
     3    17     7    1
     4     7     8    2
     5     8     9    1
     6     9    10   ar
     7    10    11   ar
     8    11    12   ar
     9    12    13    1
    10    12    14   ar
    11    14    15    1
    12    14    16   ar
    13     8     1    1
    14     1     2   ar
    15     2     3   ar
    16     3     4   ar
    17     4    20    1
    18    20    21    1
    19    21    22    1
    20    22    23    1
    21    23    24    1
    22    24    25    1
    23    25    26    1
    24    24    27    1
    25    27    28    1
    26    28    29    1
    27    29    30   ar
    28    30    31   ar
    29    31    32    2
    30    31    33   ar
    31    33    34    1
    32    33    35   ar
    33    35    36   ar
    34     4     5   ar
    35     5     6   ar
    36    16     9   ar
    37     6     1   ar
    38    26    21    1
    39    36    29   ar
    40    36    24    1
@<TRIPOS>MOLECULE
*****
 36 40 0 0 0
SMALL
GASTEIGER

@<TRIPOS>ATOM
      1 C         139.1806  139.7338  168.1171 C.ar    1  UNL1        0.1020
      2 C         137.9327  139.0566  167.6332 C.ar    1  UNL1        0.0205
      3 C         137.8705  138.5062  166.2392 C.ar    1  UNL1        0.0002
      4 C         139.0561  138.6331  165.3291 C.ar    1  UNL1        0.0130
      5 C         140.3040  139.3103  165.8131 C.ar    1  UNL1        0.0959
      6 N         140.3662  139.8607  167.2071 N.ar    1  UNL1       -0.2425
      7 N         138.2191  139.8714  170.5268 N.2     1  UNL1       -0.0815
      8 C         139.2428  140.2841  169.5111 C.2     1  UNL1        0.1369
      9 C         140.3288  141.2473  169.8894 C.ar    1  UNL1        0.0247
     10 C         141.6994  140.7383  170.2246 C.ar    1  UNL1        0.0041
     11 C         142.7853  141.7014  170.6029 C.ar    1  UNL1        0.0320
     12 C         142.5007  143.1735  170.6460 C.ar    1  UNL1        0.1674
     13 F         143.5867  144.1366  171.0243 F       1  UNL1       -0.2018
     14 C         141.1301  143.6825  170.3108 C.ar    1  UNL1        0.1674
     15 F         140.8454  145.1546  170.3539 F       1  UNL1       -0.2018
     16 C         140.0441  142.7194  169.9325 C.ar    1  UNL1        0.0336
     17 O         137.1331  138.9083  170.1485 O.2     1  UNL1       -0.3773
     18 C         136.1720  137.4223  172.0506 C.3     1  UNL1        0.0543
     19 C         136.0371  138.5932  171.1229 C.3     1  UNL1        0.2386
     20 C         138.9939  138.0827  163.9351 C.3     1  UNL1        0.1007
     21 N         139.9238  138.6050  162.8804 N.3     1  UNL1       -0.2687
     22 C         139.8385  140.0389  162.4485 C.3     1  UNL1        0.0751
     23 C         140.7684  140.5610  161.3937 C.3     1  UNL1        0.0489
     24 C         141.7837  139.6493  160.7709 C.3     1  UNL1        0.1157
     25 C         141.8690  138.2154  161.2028 C.3     1  UNL1        0.0489
     26 C         140.9391  137.6932  162.2575 C.3     1  UNL1        0.0751
     27 O         142.8444  138.8606  160.0617 O.3     1  UNL1       -0.3496
     28 C         143.5325  139.7758  159.0926 C.3     1  UNL1        0.1688
     29 C         142.8970  141.1301  159.2028 C.ar    1  UNL1        0.0117
     30 C         143.1628  142.4244  158.4928 C.ar    1  UNL1        0.0587
     31 C         142.3480  143.6404  158.8199 C.ar    1  UNL1        0.2608
     32 O         142.6138  144.9347  158.1099 O.2     1  UNL1       -0.2670
     33 N         141.2671  143.5623  159.8571 N.ar    1  UNL1       -0.2924
     34 C         140.4522  144.7783  160.1842 C.3     1  UNL1        0.1336
     35 C         141.0013  142.2680  160.5672 C.ar    1  UNL1        0.0760
     36 C         141.8162  141.0520  160.2400 C.ar    1  UNL1        0.0179
@<TRIPOS>BOND
     1    18    19    1
     2    19    17    1
     3    17     7    1
     4     7     8    2
     5     8     9    1
     6     9    10   ar
     7    10    11   ar
     8    11    12   ar
     9    12    13    1
    10    12    14   ar
    11    14    15    1
    12    14    16   ar
    13     8     1    1
    14     1     2   ar
    15     2     3   ar
    16     3     4   ar
    17     4    20    1
    18    20    21    1
    19    21    22    1
    20    22    23    1
    21    23    24    1
    22    24    25    1
    23    25    26    1
    24    24    27    1
    25    27    28    1
    26    28    29    1
    27    29    30   ar
    28    30    31   ar
    29    31    32    2
    30    31    33   ar
    31    33    34    1
    32    33    35   ar
    33    35    36   ar
    34     4     5   ar
    35     5     6   ar
    36    16     9   ar
    37     6     1   ar
    38    26    21    1
    39    36    29   ar
    40    36    24    1
@<TRIPOS>MOLECULE
*****
 36 40 0 0 0
SMALL
GASTEIGER

@<TRIPOS>ATOM
      1 C         141.8478  138.7968  160.4368 C.ar    1  UNL1        0.1020
      2 C         142.2914  137.9135  161.5652 C.ar    1  UNL1        0.0205
      3 C         141.3205  137.5267  162.6411 C.ar    1  UNL1        0.0002
      4 C         139.9059  138.0231  162.5887 C.ar    1  UNL1        0.0130
      5 C         139.4624  138.9064  161.4604 C.ar    1  UNL1        0.0959
      6 N         140.4334  139.2932  160.3844 N.ar    1  UNL1       -0.2425
      7 N         143.7440  140.3459  159.5681 N.2     1  UNL1       -0.0815
      8 C         142.8187  139.1836  159.3609 C.2     1  UNL1        0.1369
      9 C         142.8644  138.4081  158.0777 C.ar    1  UNL1        0.0247
     10 C         143.1287  139.1165  156.7823 C.ar    1  UNL1        0.0041
     11 C         143.1744  138.3410  155.4991 C.ar    1  UNL1        0.0320
     12 C         142.9559  136.8571  155.5114 C.ar    1  UNL1        0.1674
     13 F         143.0016  136.0816  154.2282 F       1  UNL1       -0.2018
     14 C         142.6916  136.1486  156.8069 C.ar    1  UNL1        0.1674
     15 F         142.4731  134.6646  156.8192 F       1  UNL1       -0.2018
     16 C         142.6459  136.9241  158.0901 C.ar    1  UNL1        0.0336
     17 O         143.6983  141.1214  160.8513 O.2     1  UNL1       -0.3773
     18 C         145.4053  141.8184  162.6816 C.3     1  UNL1        0.0543
     19 C         144.6123  140.7543  161.9825 C.3     1  UNL1        0.2386
     20 C         138.9350  137.6363  163.6647 C.3     1  UNL1        0.1007
     21 N         139.0035  138.2971  165.0096 N.3     1  UNL1       -0.2687
     22 C         140.1394  139.2213  165.3342 C.3     1  UNL1        0.0751
     23 C         140.2078  139.8820  166.6791 C.3     1  UNL1        0.0489
     24 C         139.1402  139.6185  167.6994 C.3     1  UNL1        0.1157
     25 C         138.0043  138.6943  167.3747 C.3     1  UNL1        0.0489
     26 C         137.9359  138.0336  166.0298 C.3     1  UNL1        0.0751
     27 O         138.1512  139.4521  168.8148 O.3     1  UNL1       -0.3496
     28 C         138.6094  140.2924  169.9698 C.3     1  UNL1        0.1688
     29 C         139.8816  140.9782  169.5682 C.ar    1  UNL1        0.0117
     30 C         140.7838  141.9280  170.2989 C.ar    1  UNL1        0.0587
     31 C         142.0139  142.4614  169.6265 C.ar    1  UNL1        0.2608
     32 O         142.9160  143.4112  170.3572 O.2     1  UNL1       -0.2670
     33 N         142.3420  142.0449  168.2233 N.ar    1  UNL1       -0.2924
     34 C         143.5721  142.5783  167.5509 C.3     1  UNL1        0.1336
     35 C         141.4399  141.0950  167.4926 C.ar    1  UNL1        0.0760
     36 C         140.2097  140.5617  168.1650 C.ar    1  UNL1        0.0179
@<TRIPOS>BOND
     1    18    19    1
     2    19    17    1
     3    17     7    1
     4     7     8    2
     5     8     9    1
     6     9    10   ar
     7    10    11   ar
     8    11    12   ar
     9    12    13    1
    10    12    14   ar
    11    14    15    1
    12    14    16   ar
    13     8     1    1
    14     1     2   ar
    15     2     3   ar
    16     3     4   ar
    17     4    20    1
    18    20    21    1
    19    21    22    1
    20    22    23    1
    21    23    24    1
    22    24    25    1
    23    25    26    1
    24    24    27    1
    25    27    28    1
    26    28    29    1
    27    29    30   ar
    28    30    31   ar
    29    31    32    2
    30    31    33   ar
    31    33    34    1
    32    33    35   ar
    33    35    36   ar
    34     4     5   ar
    35     5     6   ar
    36    16     9   ar
    37     6     1   ar
    38    26    21    1
    39    36    29   ar
    40    36    24    1
@<TRIPOS>MOLECULE
*****
 36 40 0 0 0
SMALL
GASTEIGER

@<TRIPOS>ATOM
      1 C         143.8071  142.0178  159.3543 C.ar    1  UNL1        0.1020
      2 C         143.1526  140.6811  159.5411 C.ar    1  UNL1        0.0205
      3 C         143.3199  139.9382  160.8334 C.ar    1  UNL1        0.0002
      4 C         144.1417  140.5319  161.9389 C.ar    1  UNL1        0.0130
      5 C         144.7963  141.8686  161.7521 C.ar    1  UNL1        0.0959
      6 N         144.6289  142.6115  160.4598 N.ar    1  UNL1       -0.2425
      7 N         144.5059  142.4226  156.8849 N.2     1  UNL1       -0.0815
      8 C         143.6398  142.7608  158.0621 C.2     1  UNL1        0.1369
      9 C         142.6064  143.8419  157.9469 C.ar    1  UNL1        0.0247
     10 C         142.3151  144.4618  156.6124 C.ar    1  UNL1        0.0041
     11 C         141.2817  145.5430  156.4972 C.ar    1  UNL1        0.0320
     12 C         140.5397  146.0042  157.7165 C.ar    1  UNL1        0.1674
     13 F         139.5063  147.0853  157.6013 F       1  UNL1       -0.2018
     14 C         140.8310  145.3843  159.0510 C.ar    1  UNL1        0.1674
     15 F         140.0889  145.8455  160.2702 F       1  UNL1       -0.2018
     16 C         141.8644  144.3031  159.1662 C.ar    1  UNL1        0.0336
     17 O         145.5393  141.3415  157.0001 O.2     1  UNL1       -0.3773
     18 C         145.9595  141.3297  154.4363 C.3     1  UNL1        0.0543
     19 C         146.0358  140.6443  155.7684 C.3     1  UNL1        0.2386
     20 C         144.3090  139.7889  163.2312 C.3     1  UNL1        0.1007
     21 N         143.2167  139.8161  164.2588 N.3     1  UNL1       -0.2687
     22 C         143.4193  140.5530  165.5495 C.3     1  UNL1        0.0751
     23 C         142.3270  140.5802  166.5771 C.3     1  UNL1        0.0489
     24 C         141.0319  139.8705  166.3140 C.3     1  UNL1        0.1157
     25 C         140.8293  139.1336  165.0233 C.3     1  UNL1        0.0489
     26 C         141.9216  139.1064  163.9958 C.3     1  UNL1        0.0751
     27 O         139.6903  139.2108  166.1923 O.3     1  UNL1       -0.3496
     28 C         138.9185  139.4947  167.4469 C.3     1  UNL1        0.1688
     29 C         139.7833  140.3300  168.3440 C.ar    1  UNL1        0.0117
     30 C         139.5501  140.9091  169.7079 C.ar    1  UNL1        0.0587
     31 C         140.6229  141.7203  170.3716 C.ar    1  UNL1        0.2608
     32 O         140.3898  142.2994  171.7356 O.2     1  UNL1       -0.2670
     33 N         141.9291  141.9526  169.6716 N.ar    1  UNL1       -0.2924
     34 C         143.0020  142.7638  170.3353 C.3     1  UNL1        0.1336
     35 C         142.1623  141.3735  168.3076 C.ar    1  UNL1        0.0760
     36 C         141.0894  140.5622  167.6438 C.ar    1  UNL1        0.0179
@<TRIPOS>BOND
     1    18    19    1
     2    19    17    1
     3    17     7    1
     4     7     8    2
     5     8     9    1
     6     9    10   ar
     7    10    11   ar
     8    11    12   ar
     9    12    13    1
    10    12    14   ar
    11    14    15    1
    12    14    16   ar
    13     8     1    1
    14     1     2   ar
    15     2     3   ar
    16     3     4   ar
    17     4    20    1
    18    20    21    1
    19    21    22    1
    20    22    23    1
    21    23    24    1
    22    24    25    1
    23    25    26    1
    24    24    27    1
    25    27    28    1
    26    28    29    1
    27    29    30   ar
    28    30    31   ar
    29    31    32    2
    30    31    33   ar
    31    33    34    1
    32    33    35   ar
    33    35    36   ar
    34     4     5   ar
    35     5     6   ar
    36    16     9   ar
    37     6     1   ar
    38    26    21    1
    39    36    29   ar
    40    36    24    1
