@<TRIPOS>MOLECULE
*****
 27 29 0 0 0
SMALL
GASTEIGER

@<TRIPOS>ATOM
      1 N         139.4973  140.3463  166.0155 N.pl3   1  UNL1       -0.3034
      2 C         141.2265  142.1306  170.6745 C.2     1  UNL1        0.2257
      3 O         140.9215  141.9271  172.1290 O.2     1  UNL1       -0.2749
      4 N         140.4499  141.3806  169.6333 N.am    1  UNL1       -0.2778
      5 C         139.3456  140.3993  169.8936 C.3     1  UNL1        0.0952
      6 C         138.8544  139.8924  168.5700 C.3     1  UNL1        0.0430
      7 C         139.6551  140.5605  167.4918 C.3     1  UNL1        0.0946
      8 C         140.6411  141.4802  168.1489 C.3     1  UNL1        0.1131
      9 C         143.6650  142.5637  169.8896 C.3     1  UNL1        0.0101
     10 C         142.3083  143.0841  170.2614 C.3     1  UNL1        0.0853
     11 C         139.4419  141.5243  165.0885 C.ar    1  UNL1        0.0490
     12 C         138.1181  142.0298  164.5966 C.ar    1  UNL1        0.0153
     13 C         138.0626  143.2078  163.6696 C.ar    1  UNL1        0.0124
     14 C         139.3309  143.8802  163.2345 C.ar    1  UNL1        0.0791
     15 C         140.6548  143.3746  163.7264 C.ar    1  UNL1        0.0685
     16 CL        141.9230  144.0470  163.2913 Cl      1  UNL1       -0.0815
     17 C         140.7102  142.1967  164.6534 C.ar    1  UNL1        0.0266
     18 C         139.2754  145.0581  162.3075 C.1     1  UNL1        0.1013
     19 N         139.2200  146.2361  161.3805 N.1     1  UNL1       -0.1908
     20 C         139.3951  138.9543  165.4663 C.3     1  UNL1        0.1182
     21 C         140.0274  138.6198  164.1478 C.ar    1  UNL1        0.0038
     22 C         139.1971  138.6108  162.8987 C.ar    1  UNL1       -0.0021
     23 C         139.8295  138.2763  161.5802 C.ar    1  UNL1       -0.0002
     24 C         141.2921  137.9509  161.5109 C.ar    1  UNL1        0.0005
     25 C         142.1224  137.9600  162.7601 C.ar    1  UNL1        0.0064
     26 C         141.4901  138.2944  164.0786 C.ar    1  UNL1        0.0322
     27 BR        142.3204  138.3035  165.3278 Br      1  UNL1       -0.0493
@<TRIPOS>BOND
     1     9    10    1
     2    10     2    1
     3     2     3    2
     4     2     4   am
     5     4     5    1
     6     5     6    1
     7     6     7    1
     8     7     1    1
     9     1    20    1
    10    20    21    1
    11    21    22   ar
    12    22    23   ar
    13    23    24   ar
    14    24    25   ar
    15    25    26   ar
    16    26    27    1
    17     1    11    1
    18    11    12   ar
    19    12    13   ar
    20    13    14   ar
    21    14    18    1
    22    18    19    3
    23    14    15   ar
    24    15    16    1
    25    15    17   ar
    26     7     8    1
    27     8     4    1
    28    26    21   ar
    29    17    11   ar
@<TRIPOS>MOLECULE
*****
 27 29 0 0 0
SMALL
GASTEIGER

@<TRIPOS>ATOM
      1 N         139.6927  140.3510  165.9179 N.pl3   1  UNL1       -0.3034
      2 C         141.1255  142.0890  170.6936 C.2     1  UNL1        0.2257
      3 O         140.7251  141.8767  172.1235 O.2     1  UNL1       -0.2749
      4 N         140.4138  141.3520  169.5981 N.am    1  UNL1       -0.2778
      5 C         139.2889  140.3761  169.7783 C.3     1  UNL1        0.0952
      6 C         138.8819  139.8824  168.4215 C.3     1  UNL1        0.0430
      7 C         139.7552  140.5531  167.4030 C.3     1  UNL1        0.0946
      8 C         140.7020  141.4613  168.1301 C.3     1  UNL1        0.1131
      9 C         143.5843  142.5076  169.9662 C.3     1  UNL1        0.0101
     10 C         142.2377  143.0384  170.3593 C.3     1  UNL1        0.0853
     11 C         139.5991  141.5360  165.0030 C.ar    1  UNL1        0.0490
     12 C         138.3038  141.8530  164.3165 C.ar    1  UNL1        0.0153
     13 C         138.2102  143.0381  163.4016 C.ar    1  UNL1        0.0124
     14 C         139.4120  143.9061  163.1733 C.ar    1  UNL1        0.0791
     15 C         140.7075  143.5891  163.8599 C.ar    1  UNL1        0.0685
     16 CL        141.9093  144.4571  163.6316 Cl      1  UNL1       -0.0815
     17 C         140.8011  142.4040  164.7748 C.ar    1  UNL1        0.0266
     18 C         139.3185  145.0911  162.2584 C.1     1  UNL1        0.1013
     19 N         139.2249  146.2761  161.3436 N.1     1  UNL1       -0.1908
     20 C         139.7238  138.9640  165.3478 C.3     1  UNL1        0.1182
     21 C         140.6014  138.6563  164.1709 C.ar    1  UNL1        0.0038
     22 C         142.0937  138.6898  164.3191 C.ar    1  UNL1       -0.0021
     23 C         142.9714  138.3821  163.1422 C.ar    1  UNL1       -0.0002
     24 C         142.3568  138.0408  161.8172 C.ar    1  UNL1        0.0005
     25 C         140.8644  138.0072  161.6690 C.ar    1  UNL1        0.0064
     26 C         139.9868  138.3149  162.8459 C.ar    1  UNL1        0.0322
     27 BR        138.4945  138.2813  162.6977 Br      1  UNL1       -0.0493
@<TRIPOS>BOND
     1     9    10    1
     2    10     2    1
     3     2     3    2
     4     2     4   am
     5     4     5    1
     6     5     6    1
     7     6     7    1
     8     7     1    1
     9     1    20    1
    10    20    21    1
    11    21    22   ar
    12    22    23   ar
    13    23    24   ar
    14    24    25   ar
    15    25    26   ar
    16    26    27    1
    17     1    11    1
    18    11    12   ar
    19    12    13   ar
    20    13    14   ar
    21    14    18    1
    22    18    19    3
    23    14    15   ar
    24    15    16    1
    25    15    17   ar
    26     7     8    1
    27     8     4    1
    28    26    21   ar
    29    17    11   ar
@<TRIPOS>MOLECULE
*****
 27 29 0 0 0
SMALL
GASTEIGER

@<TRIPOS>ATOM
      1 N         142.5932  140.3865  165.8635 N.pl3   1  UNL1       -0.3034
      2 C         140.5879  141.4960  170.6204 C.2     1  UNL1        0.2257
      3 O         140.6215  140.9220  172.0058 O.2     1  UNL1       -0.2749
      4 N         141.3407  140.8230  169.5113 N.am    1  UNL1       -0.2778
      5 C         142.1663  139.5768  169.6355 C.3     1  UNL1        0.0952
      6 C         142.7360  139.2616  168.2841 C.3     1  UNL1        0.0430
      7 C         142.2624  140.3130  167.3248 C.3     1  UNL1        0.0946
      8 C         141.4001  141.2780  168.0832 C.3     1  UNL1        0.1131
      9 C         140.5136  144.0228  170.0206 C.3     1  UNL1        0.0101
     10 C         139.8014  142.7431  170.3443 C.3     1  UNL1        0.0853
     11 C         142.0919  141.5341  165.0379 C.ar    1  UNL1        0.0490
     12 C         140.7579  141.4427  164.3582 C.ar    1  UNL1        0.0153
     13 C         140.2566  142.5903  163.5326 C.ar    1  UNL1        0.0124
     14 C         141.0893  143.8294  163.3867 C.ar    1  UNL1        0.0791
     15 C         142.4234  143.9208  164.0664 C.ar    1  UNL1        0.0685
     16 CL        143.2561  145.1599  163.9204 Cl      1  UNL1       -0.0815
     17 C         142.9247  142.7732  164.8920 C.ar    1  UNL1        0.0266
     18 C         140.5880  144.9770  162.5610 C.1     1  UNL1        0.1013
     19 N         140.0867  146.1246  161.7354 N.1     1  UNL1       -0.1908
     20 C         143.4252  139.3124  165.2280 C.3     1  UNL1        0.1182
     21 C         143.2506  138.9905  163.7733 C.ar    1  UNL1        0.0038
     22 C         144.1732  139.5933  162.7558 C.ar    1  UNL1       -0.0021
     23 C         143.9986  139.2714  161.3012 C.ar    1  UNL1       -0.0002
     24 C         142.9014  138.3467  160.8641 C.ar    1  UNL1        0.0005
     25 C         141.9787  137.7439  161.8817 C.ar    1  UNL1        0.0064
     26 C         142.1533  138.0658  163.3363 C.ar    1  UNL1        0.0322
     27 BR        141.2307  137.4630  164.3538 Br      1  UNL1       -0.0493
@<TRIPOS>BOND
     1     9    10    1
     2    10     2    1
     3     2     3    2
     4     2     4   am
     5     4     5    1
     6     5     6    1
     7     6     7    1
     8     7     1    1
     9     1    20    1
    10    20    21    1
    11    21    22   ar
    12    22    23   ar
    13    23    24   ar
    14    24    25   ar
    15    25    26   ar
    16    26    27    1
    17     1    11    1
    18    11    12   ar
    19    12    13   ar
    20    13    14   ar
    21    14    18    1
    22    18    19    3
    23    14    15   ar
    24    15    16    1
    25    15    17   ar
    26     7     8    1
    27     8     4    1
    28    26    21   ar
    29    17    11   ar
@<TRIPOS>MOLECULE
*****
 27 29 0 0 0
SMALL
GASTEIGER

@<TRIPOS>ATOM
      1 N         142.9519  142.1522  165.1020 N.pl3   1  UNL1       -0.3034
      2 C         139.5075  144.9781  162.2682 C.2     1  UNL1        0.2257
      3 O         139.5404  146.0068  161.1770 O.2     1  UNL1       -0.2749
      4 N         140.7890  144.4142  162.8061 N.am    1  UNL1       -0.2778
      5 C         142.1718  144.7803  162.3542 C.3     1  UNL1        0.0952
      6 C         143.1503  143.9774  163.1593 C.3     1  UNL1        0.0430
      7 C         142.3723  143.1153  164.1087 C.3     1  UNL1        0.0946
      8 C         140.9130  143.3852  163.8904 C.3     1  UNL1        0.1131
      9 C         137.7115  143.1208  162.5415 C.3     1  UNL1        0.0101
     10 C         138.1929  144.5135  162.8214 C.3     1  UNL1        0.0853
     11 C         142.4539  142.1437  166.5169 C.ar    1  UNL1        0.0490
     12 C         141.0093  141.8577  166.8019 C.ar    1  UNL1        0.0153
     13 C         140.5113  141.8492  168.2168 C.ar    1  UNL1        0.0124
     14 C         141.4580  142.1266  169.3467 C.ar    1  UNL1        0.0791
     15 C         142.9027  142.4126  169.0618 C.ar    1  UNL1        0.0685
     16 CL        143.8493  142.6901  170.1917 Cl      1  UNL1       -0.0815
     17 C         143.4006  142.4211  167.6469 C.ar    1  UNL1        0.0266
     18 C         140.9600  142.1181  170.7616 C.1     1  UNL1        0.1013
     19 N         140.4620  142.1096  172.1765 N.1     1  UNL1       -0.1908
     20 C         144.0294  141.1977  164.6804 C.3     1  UNL1        0.1182
     21 C         143.7894  140.2510  163.5419 C.ar    1  UNL1        0.0038
     22 C         144.2914  140.5868  162.1688 C.ar    1  UNL1       -0.0021
     23 C         144.0514  139.6401  161.0303 C.ar    1  UNL1       -0.0002
     24 C         143.3095  138.3578  161.2648 C.ar    1  UNL1        0.0005
     25 C         142.8075  138.0219  162.6379 C.ar    1  UNL1        0.0064
     26 C         143.0475  138.9686  163.7764 C.ar    1  UNL1        0.0322
     27 BR        142.5456  138.6328  165.1495 Br      1  UNL1       -0.0493
@<TRIPOS>BOND
     1     9    10    1
     2    10     2    1
     3     2     3    2
     4     2     4   am
     5     4     5    1
     6     5     6    1
     7     6     7    1
     8     7     1    1
     9     1    20    1
    10    20    21    1
    11    21    22   ar
    12    22    23   ar
    13    23    24   ar
    14    24    25   ar
    15    25    26   ar
    16    26    27    1
    17     1    11    1
    18    11    12   ar
    19    12    13   ar
    20    13    14   ar
    21    14    18    1
    22    18    19    3
    23    14    15   ar
    24    15    16    1
    25    15    17   ar
    26     7     8    1
    27     8     4    1
    28    26    21   ar
    29    17    11   ar
@<TRIPOS>MOLECULE
*****
 27 29 0 0 0
SMALL
GASTEIGER

@<TRIPOS>ATOM
      1 N         139.7254  140.8539  165.7979 N.pl3   1  UNL1       -0.3034
      2 C         141.7828  141.9342  170.5393 C.2     1  UNL1        0.2257
      3 O         141.6013  141.4903  171.9606 O.2     1  UNL1       -0.2749
      4 N         140.9426  141.3320  169.4525 N.am    1  UNL1       -0.2778
      5 C         139.8866  140.2821  169.6337 C.3     1  UNL1        0.0952
      6 C         139.3021  139.9752  168.2867 C.3     1  UNL1        0.0430
      7 C         139.9969  140.8355  167.2731 C.3     1  UNL1        0.0946
      8 C         141.0107  141.6740  167.9935 C.3     1  UNL1        0.1131
      9 C         144.2187  142.5791  169.9066 C.3     1  UNL1        0.0101
     10 C         142.8046  142.9802  170.2050 C.3     1  UNL1        0.0853
     11 C         140.8156  141.2314  164.8394 C.ar    1  UNL1        0.0490
     12 C         140.7969  142.5754  164.1738 C.ar    1  UNL1        0.0153
     13 C         141.8872  142.9529  163.2152 C.ar    1  UNL1        0.0124
     14 C         142.9961  141.9863  162.9222 C.ar    1  UNL1        0.0791
     15 C         143.0149  140.6422  163.5878 C.ar    1  UNL1        0.0685
     16 CL        144.1238  139.6756  163.2948 Cl      1  UNL1       -0.0815
     17 C         141.9246  140.2647  164.5464 C.ar    1  UNL1        0.0266
     18 C         144.0864  142.3638  161.9637 C.1     1  UNL1        0.1013
     19 N         145.1767  142.7413  161.0051 N.1     1  UNL1       -0.1908
     20 C         138.3637  140.4948  165.2814 C.3     1  UNL1        0.1182
     21 C         138.2059  139.9668  163.8863 C.ar    1  UNL1        0.0038
     22 C         137.6911  140.8628  162.7990 C.ar    1  UNL1       -0.0021
     23 C         137.5333  140.3348  161.4039 C.ar    1  UNL1       -0.0002
     24 C         137.8904  138.9108  161.0961 C.ar    1  UNL1        0.0005
     25 C         138.4053  138.0148  162.1834 C.ar    1  UNL1        0.0064
     26 C         138.5630  138.5428  163.5785 C.ar    1  UNL1        0.0322
     27 BR        139.0778  137.6468  164.6657 Br      1  UNL1       -0.0493
@<TRIPOS>BOND
     1     9    10    1
     2    10     2    1
     3     2     3    2
     4     2     4   am
     5     4     5    1
     6     5     6    1
     7     6     7    1
     8     7     1    1
     9     1    20    1
    10    20    21    1
    11    21    22   ar
    12    22    23   ar
    13    23    24   ar
    14    24    25   ar
    15    25    26   ar
    16    26    27    1
    17     1    11    1
    18    11    12   ar
    19    12    13   ar
    20    13    14   ar
    21    14    18    1
    22    18    19    3
    23    14    15   ar
    24    15    16    1
    25    15    17   ar
    26     7     8    1
    27     8     4    1
    28    26    21   ar
    29    17    11   ar
@<TRIPOS>MOLECULE
*****
 27 29 0 0 0
SMALL
GASTEIGER

@<TRIPOS>ATOM
      1 N         140.8477  139.6290  165.1208 N.pl3   1  UNL1       -0.3034
      2 C         138.7858  142.9522  161.5733 C.2     1  UNL1        0.2257
      3 O         137.6257  142.9894  160.6232 O.2     1  UNL1       -0.2749
      4 N         139.0081  141.7475  162.4388 N.am    1  UNL1       -0.2778
      5 C         138.1587  140.5114  162.4644 C.3     1  UNL1        0.0952
      6 C         138.7445  139.5673  163.4722 C.3     1  UNL1        0.0430
      7 C         139.9558  140.2200  164.0695 C.3     1  UNL1        0.0946
      8 C         140.1188  141.5674  163.4308 C.3     1  UNL1        0.1131
      9 C         139.4653  145.2197  162.6442 C.3     1  UNL1        0.0101
     10 C         139.7237  144.1198  161.6577 C.3     1  UNL1        0.0853
     11 C         140.7846  140.1378  166.5305 C.ar    1  UNL1        0.0490
     12 C         139.5714  139.8699  167.3709 C.ar    1  UNL1        0.0153
     13 C         139.5082  140.3788  168.7805 C.ar    1  UNL1        0.0124
     14 C         140.6583  141.1555  169.3498 C.ar    1  UNL1        0.0791
     15 C         141.8716  141.4234  168.5093 C.ar    1  UNL1        0.0685
     16 CL        143.0216  142.2001  169.0785 Cl      1  UNL1       -0.0815
     17 C         141.9347  140.9146  167.0997 C.ar    1  UNL1        0.0266
     18 C         140.5952  141.6643  170.7594 C.1     1  UNL1        0.1013
     19 N         140.5320  142.1732  172.1690 N.1     1  UNL1       -0.1908
     20 C         141.8026  138.5291  164.7626 C.3     1  UNL1        0.1182
     21 C         142.4376  138.5002  163.4039 C.ar    1  UNL1        0.0038
     22 C         141.7771  137.7537  162.2830 C.ar    1  UNL1       -0.0021
     23 C         142.4121  137.7247  160.9244 C.ar    1  UNL1       -0.0002
     24 C         143.7076  138.4423  160.6866 C.ar    1  UNL1        0.0005
     25 C         144.3683  139.1888  161.8075 C.ar    1  UNL1        0.0064
     26 C         143.7333  139.2178  163.1661 C.ar    1  UNL1        0.0322
     27 BR        144.3938  139.9643  164.2870 Br      1  UNL1       -0.0493
@<TRIPOS>BOND
     1     9    10    1
     2    10     2    1
     3     2     3    2
     4     2     4   am
     5     4     5    1
     6     5     6    1
     7     6     7    1
     8     7     1    1
     9     1    20    1
    10    20    21    1
    11    21    22   ar
    12    22    23   ar
    13    23    24   ar
    14    24    25   ar
    15    25    26   ar
    16    26    27    1
    17     1    11    1
    18    11    12   ar
    19    12    13   ar
    20    13    14   ar
    21    14    18    1
    22    18    19    3
    23    14    15   ar
    24    15    16    1
    25    15    17   ar
    26     7     8    1
    27     8     4    1
    28    26    21   ar
    29    17    11   ar
@<TRIPOS>MOLECULE
*****
 27 29 0 0 0
SMALL
GASTEIGER

@<TRIPOS>ATOM
      1 N         141.4338  140.3095  165.4256 N.pl3   1  UNL1       -0.3034
      2 C         140.9807  141.7121  170.4958 C.2     1  UNL1        0.2257
      3 O         141.5709  141.3201  171.8179 O.2     1  UNL1       -0.2749
      4 N         141.4199  141.0154  169.2423 N.am    1  UNL1       -0.2778
      5 C         142.4347  139.9141  169.1549 C.3     1  UNL1        0.0952
      6 C         142.5634  139.5157  167.7145 C.3     1  UNL1        0.0430
      7 C         141.6282  140.3707  166.9117 C.3     1  UNL1        0.0946
      8 C         140.9215  141.2975  167.8559 C.3     1  UNL1        0.1131
      9 C         140.3420  144.1751  169.9706 C.3     1  UNL1        0.0101
     10 C         139.9512  142.8009  170.4275 C.3     1  UNL1        0.0853
     11 C         141.0573  141.5475  164.6669 C.ar    1  UNL1        0.0490
     12 C         142.1180  142.3640  163.9900 C.ar    1  UNL1        0.0153
     13 C         141.7415  143.6019  163.2313 C.ar    1  UNL1        0.0124
     14 C         140.3043  144.0234  163.1494 C.ar    1  UNL1        0.0791
     15 C         139.2435  143.2069  163.8263 C.ar    1  UNL1        0.0685
     16 CL        137.8063  143.6284  163.7445 Cl      1  UNL1       -0.0815
     17 C         139.6200  141.9689  164.5851 C.ar    1  UNL1        0.0266
     18 C         139.9277  145.2614  162.3907 C.1     1  UNL1        0.1013
     19 N         139.5512  146.4994  161.6320 N.1     1  UNL1       -0.1908
     20 C         141.6160  139.0104  164.6982 C.3     1  UNL1        0.1182
     21 C         140.7779  138.7016  163.4932 C.ar    1  UNL1        0.0038
     22 C         139.3410  138.3051  163.6606 C.ar    1  UNL1       -0.0021
     23 C         138.5028  137.9962  162.4556 C.ar    1  UNL1       -0.0002
     24 C         139.1015  138.0839  161.0831 C.ar    1  UNL1        0.0005
     25 C         140.5385  138.4804  160.9156 C.ar    1  UNL1        0.0064
     26 C         141.3767  138.7892  162.1206 C.ar    1  UNL1        0.0322
     27 BR        142.8136  139.1857  161.9532 Br      1  UNL1       -0.0493
@<TRIPOS>BOND
     1     9    10    1
     2    10     2    1
     3     2     3    2
     4     2     4   am
     5     4     5    1
     6     5     6    1
     7     6     7    1
     8     7     1    1
     9     1    20    1
    10    20    21    1
    11    21    22   ar
    12    22    23   ar
    13    23    24   ar
    14    24    25   ar
    15    25    26   ar
    16    26    27    1
    17     1    11    1
    18    11    12   ar
    19    12    13   ar
    20    13    14   ar
    21    14    18    1
    22    18    19    3
    23    14    15   ar
    24    15    16    1
    25    15    17   ar
    26     7     8    1
    27     8     4    1
    28    26    21   ar
    29    17    11   ar
@<TRIPOS>MOLECULE
*****
 27 29 0 0 0
SMALL
GASTEIGER

@<TRIPOS>ATOM
      1 N         142.3112  140.0031  165.4114 N.pl3   1  UNL1       -0.3034
      2 C         138.2309  139.1331  162.1749 C.2     1  UNL1        0.2257
      3 O         137.5363  137.9612  161.5470 O.2     1  UNL1       -0.2749
      4 N         139.4103  138.9118  163.0749 N.am    1  UNL1       -0.2778
      5 C         140.0056  137.5835  163.4376 C.3     1  UNL1        0.0952
      6 C         141.1648  137.8307  164.3571 C.3     1  UNL1        0.0430
      7 C         141.2858  139.3117  164.5625 C.3     1  UNL1        0.0946
      8 C         140.2015  139.9798  163.7701 C.3     1  UNL1        0.1131
      9 C         137.2428  141.3787  163.0297 C.3     1  UNL1        0.0101
     10 C         137.7459  140.5262  161.9029 C.3     1  UNL1        0.0853
     11 C         141.9673  140.4234  166.8097 C.ar    1  UNL1        0.0490
     12 C         142.3264  139.5405  167.9679 C.ar    1  UNL1        0.0153
     13 C         141.9826  139.9608  169.3662 C.ar    1  UNL1        0.0124
     14 C         141.2796  141.2639  169.6062 C.ar    1  UNL1        0.0791
     15 C         140.9204  142.1468  168.4479 C.ar    1  UNL1        0.0685
     16 CL        140.2175  143.4499  168.6880 Cl      1  UNL1       -0.0815
     17 C         141.2643  141.7266  167.0497 C.ar    1  UNL1        0.0266
     18 C         140.9357  141.6841  171.0045 C.1     1  UNL1        0.1013
     19 N         140.5919  142.1044  172.4027 N.1     1  UNL1       -0.1908
     20 C         143.6803  140.2742  164.8621 C.3     1  UNL1        0.1182
     21 C         143.9332  141.5138  164.0562 C.ar    1  UNL1        0.0038
     22 C         143.9129  142.8580  164.7215 C.ar    1  UNL1       -0.0021
     23 C         144.1657  144.0976  163.9156 C.ar    1  UNL1       -0.0002
     24 C         144.4389  143.9930  162.4444 C.ar    1  UNL1        0.0005
     25 C         144.4591  142.6488  161.7790 C.ar    1  UNL1        0.0064
     26 C         144.2063  141.4092  162.5849 C.ar    1  UNL1        0.0322
     27 BR        144.2266  140.0650  161.9196 Br      1  UNL1       -0.0493
@<TRIPOS>BOND
     1     9    10    1
     2    10     2    1
     3     2     3    2
     4     2     4   am
     5     4     5    1
     6     5     6    1
     7     6     7    1
     8     7     1    1
     9     1    20    1
    10    20    21    1
    11    21    22   ar
    12    22    23   ar
    13    23    24   ar
    14    24    25   ar
    15    25    26   ar
    16    26    27    1
    17     1    11    1
    18    11    12   ar
    19    12    13   ar
    20    13    14   ar
    21    14    18    1
    22    18    19    3
    23    14    15   ar
    24    15    16    1
    25    15    17   ar
    26     7     8    1
    27     8     4    1
    28    26    21   ar
    29    17    11   ar
@<TRIPOS>MOLECULE
*****
 27 29 0 0 0
SMALL
GASTEIGER

@<TRIPOS>ATOM
      1 N         141.1187  140.5856  164.9340 N.pl3   1  UNL1       -0.3034
      2 C         139.1521  140.4032  169.8309 C.2     1  UNL1        0.2257
      3 O         138.0382  139.7118  170.5597 O.2     1  UNL1       -0.2749
      4 N         139.3607  140.1510  168.3671 N.am    1  UNL1       -0.2778
      5 C         138.5402  139.2391  167.5038 C.3     1  UNL1        0.0952
      6 C         139.0989  139.2909  166.1126 C.3     1  UNL1        0.0430
      7 C         140.2647  140.2348  166.1162 C.3     1  UNL1        0.0946
      8 C         140.4265  140.7663  167.5095 C.3     1  UNL1        0.1131
      9 C         139.7867  142.8217  170.5365 C.3     1  UNL1        0.0101
     10 C         140.0573  141.3467  170.5659 C.3     1  UNL1        0.0853
     11 C         140.8016  141.8009  164.1139 C.ar    1  UNL1        0.0490
     12 C         139.7032  141.7516  163.0937 C.ar    1  UNL1        0.0153
     13 C         139.3861  142.9669  162.2737 C.ar    1  UNL1        0.0124
     14 C         140.1675  144.2315  162.4739 C.ar    1  UNL1        0.0791
     15 C         141.2660  144.2809  163.4941 C.ar    1  UNL1        0.0685
     16 CL        142.0474  145.5455  163.6943 Cl      1  UNL1       -0.0815
     17 C         141.5831  143.0656  164.3142 C.ar    1  UNL1        0.0266
     18 C         139.8504  145.4469  161.6538 C.1     1  UNL1        0.1013
     19 N         139.5334  146.6622  160.8338 N.1     1  UNL1       -0.1908
     20 C         142.2897  139.7210  164.5718 C.3     1  UNL1        0.1182
     21 C         142.5368  139.3549  163.1383 C.ar    1  UNL1        0.0038
     22 C         141.5480  138.5013  162.4011 C.ar    1  UNL1       -0.0021
     23 C         141.7951  138.1352  160.9676 C.ar    1  UNL1       -0.0002
     24 C         143.0309  138.6227  160.2713 C.ar    1  UNL1        0.0005
     25 C         144.0198  139.4764  161.0085 C.ar    1  UNL1        0.0064
     26 C         143.7728  139.8425  162.4420 C.ar    1  UNL1        0.0322
     27 BR        144.7616  140.6961  163.1792 Br      1  UNL1       -0.0493
@<TRIPOS>BOND
     1     9    10    1
     2    10     2    1
     3     2     3    2
     4     2     4   am
     5     4     5    1
     6     5     6    1
     7     6     7    1
     8     7     1    1
     9     1    20    1
    10    20    21    1
    11    21    22   ar
    12    22    23   ar
    13    23    24   ar
    14    24    25   ar
    15    25    26   ar
    16    26    27    1
    17     1    11    1
    18    11    12   ar
    19    12    13   ar
    20    13    14   ar
    21    14    18    1
    22    18    19    3
    23    14    15   ar
    24    15    16    1
    25    15    17   ar
    26     7     8    1
    27     8     4    1
    28    26    21   ar
    29    17    11   ar
