@<TRIPOS>MOLECULE
*****
 36 39 0 0 0
SMALL
GASTEIGER

@<TRIPOS>ATOM
      1 C         139.4646  139.2548  160.1225 C.ar    1  UNL1        0.0528
      2 C         140.0362  140.4961  160.7409 C.ar    1  UNL1        0.0161
      3 C         140.1498  140.6071  162.2324 C.ar    1  UNL1        0.0181
      4 C         139.6919  139.4767  163.1056 C.ar    1  UNL1        0.0757
      5 C         139.1203  138.2354  162.4873 C.ar    1  UNL1        0.1545
      6 F         138.6624  137.1050  163.3606 F       1  UNL1       -0.2028
      7 C         139.0066  138.1244  160.9957 C.ar    1  UNL1        0.0456
      8 N         139.8056  139.5877  164.5973 N.pl3   1  UNL1       -0.3057
      9 C         138.5899  139.4086  165.4575 C.3     1  UNL1        0.0922
     10 C         138.7037  139.5196  166.9490 C.3     1  UNL1        0.0374
     11 C         140.0331  139.8097  167.5803 C.3     1  UNL1        0.0610
     12 C         141.2487  139.9888  166.7201 C.3     1  UNL1        0.0374
     13 C         141.1350  139.8778  165.2286 C.3     1  UNL1        0.0922
     14 N         140.1468  139.9207  169.0719 N.3     1  UNL1       -0.2706
     15 C         138.9665  140.3669  169.8829 C.3     1  UNL1        0.0897
     16 C         141.4408  139.5855  169.7524 C.3     1  UNL1        0.1042
     17 C         142.2007  140.6510  170.4853 C.3     1  UNL1        0.1544
     18 O         142.1767  140.6927  171.9846 O.3     1  UNL1       -0.3805
     19 H         141.2782  140.8964  172.2880 H       1  UNL1        0.2105
     20 N         139.3509  139.1438  158.6310 N.pl3   1  UNL1       -0.2825
     21 H         138.4816  139.2870  158.1915 H       1  UNL1        0.1551
     22 C         144.1939  137.8274  155.3428 C.3     1  UNL1        0.0342
     23 C         142.9832  138.1565  156.1648 C.ar    1  UNL1        0.0152
     24 C         142.6518  139.5866  156.4727 C.ar    1  UNL1        0.0990
     25 N         141.4410  139.9158  157.2948 N.ar    1  UNL1       -0.2123
     26 C         140.5617  138.8147  157.8089 C.ar    1  UNL1        0.2207
     27 N         140.8930  137.3846  157.5010 N.ar    1  UNL1       -0.2138
     28 C         142.1038  137.0555  156.6790 C.ar    1  UNL1        0.0847
     29 C         142.4352  135.6253  156.3711 C.ar    1  UNL1        0.0571
     30 C         141.7113  134.7422  155.3984 C.ar    1  UNL1        0.1231
     31 N         142.3774  133.3982  155.4080 N.ar    1  UNL1       -0.1677
     32 N         143.5129  133.4506  156.3867 N.ar    1  UNL1       -0.2513
     33 C         143.5486  134.8270  156.9819 C.ar    1  UNL1        0.0980
     34 C         144.4485  132.3244  156.7129 C.3     1  UNL1        0.1054
     35 C         145.2385  132.3511  157.9877 C.3     1  UNL1        0.0263
     36 C         144.5939  131.1716  155.7644 C.3     1  UNL1        0.0263
@<TRIPOS>BOND
     1    22    23    1
     2    23    24   ar
     3    24    25   ar
     4    25    26   ar
     5    26    20    1
     6    20     1    1
     7     1     2   ar
     8     2     3   ar
     9     3     4   ar
    10     4     8    1
    11     8     9    1
    12     9    10    1
    13    10    11    1
    14    11    14    1
    15    14    15    1
    16    14    16    1
    17    16    17    1
    18    17    18    1
    19    11    12    1
    20    12    13    1
    21     4     5   ar
    22     5     6    1
    23     5     7   ar
    24    26    27   ar
    25    27    28   ar
    26    28    29    1
    27    29    30   ar
    28    30    31   ar
    29    31    32   ar
    30    32    34    1
    31    34    35    1
    32    34    36    1
    33    32    33   ar
    34    28    23   ar
    35    33    29   ar
    36     7     1   ar
    37    13     8    1
    38    20    21    1
    39    18    19    1
@<TRIPOS>MOLECULE
*****
 36 39 0 0 0
SMALL
GASTEIGER

@<TRIPOS>ATOM
      1 C         142.7384  137.9273  161.6827 C.ar    1  UNL1        0.0528
      2 C         141.4852  137.7815  162.4940 C.ar    1  UNL1        0.0161
      3 C         141.4083  138.3763  163.8688 C.ar    1  UNL1        0.0181
      4 C         142.5846  139.1169  164.4325 C.ar    1  UNL1        0.0757
      5 C         143.8378  139.2627  163.6213 C.ar    1  UNL1        0.1545
      6 F         145.0142  140.0033  164.1849 F       1  UNL1       -0.2028
      7 C         143.9148  138.6679  162.2464 C.ar    1  UNL1        0.0456
      8 N         142.5076  139.7117  165.8074 N.pl3   1  UNL1       -0.3057
      9 C         142.0770  141.1376  165.9847 C.3     1  UNL1        0.0922
     10 C         142.0001  141.7323  167.3596 C.3     1  UNL1        0.0374
     11 C         142.3538  140.9012  168.5571 C.3     1  UNL1        0.0610
     12 C         142.7844  139.4754  168.3798 C.3     1  UNL1        0.0374
     13 C         142.8613  138.8806  167.0050 C.3     1  UNL1        0.0922
     14 N         142.2768  141.4960  169.9321 N.3     1  UNL1       -0.2706
     15 C         142.9041  142.8303  170.2082 C.3     1  UNL1        0.0897
     16 C         141.5726  140.7566  171.0308 C.3     1  UNL1        0.1042
     17 C         140.1586  140.2947  170.8376 C.3     1  UNL1        0.1544
     18 O         139.6666  139.0683  171.5474 O.3     1  UNL1       -0.3805
     19 H         140.1388  138.2898  171.2129 H       1  UNL1        0.2105
     20 N         142.8153  137.3324  160.3079 N.pl3   1  UNL1       -0.2825
     21 H         142.9575  136.3645  160.1975 H       1  UNL1        0.1551
     22 C         142.2564  140.8520  155.4808 C.3     1  UNL1        0.0342
     23 C         142.3961  139.9721  156.6876 C.ar    1  UNL1        0.0152
     24 C         141.2464  139.1155  157.1284 C.ar    1  UNL1        0.0990
     25 N         141.3862  138.2356  158.3351 N.ar    1  UNL1       -0.2123
     26 C         142.6756  138.2123  159.1011 C.ar    1  UNL1        0.2207
     27 N         143.8253  139.0689  158.6603 N.ar    1  UNL1       -0.2138
     28 C         143.6856  139.9488  157.4535 C.ar    1  UNL1        0.0847
     29 C         144.8353  140.8055  157.0128 C.ar    1  UNL1        0.0571
     30 C         145.2241  142.1298  157.6001 C.ar    1  UNL1        0.1231
     31 N         146.4272  142.6309  156.8576 N.ar    1  UNL1       -0.1677
     32 N         146.7821  141.6163  155.8113 N.ar    1  UNL1       -0.2513
     33 C         145.7982  140.4881  155.9072 C.ar    1  UNL1        0.0980
     34 C         147.9208  141.7129  154.8397 C.3     1  UNL1        0.1054
     35 C         149.3348  141.7235  155.3402 C.3     1  UNL1        0.0263
     36 C         147.6455  141.7990  153.3677 C.3     1  UNL1        0.0263
@<TRIPOS>BOND
     1    22    23    1
     2    23    24   ar
     3    24    25   ar
     4    25    26   ar
     5    26    20    1
     6    20     1    1
     7     1     2   ar
     8     2     3   ar
     9     3     4   ar
    10     4     8    1
    11     8     9    1
    12     9    10    1
    13    10    11    1
    14    11    14    1
    15    14    15    1
    16    14    16    1
    17    16    17    1
    18    17    18    1
    19    11    12    1
    20    12    13    1
    21     4     5   ar
    22     5     6    1
    23     5     7   ar
    24    26    27   ar
    25    27    28   ar
    26    28    29    1
    27    29    30   ar
    28    30    31   ar
    29    31    32   ar
    30    32    34    1
    31    34    35    1
    32    34    36    1
    33    32    33   ar
    34    28    23   ar
    35    33    29   ar
    36     7     1   ar
    37    13     8    1
    38    20    21    1
    39    18    19    1
@<TRIPOS>MOLECULE
*****
 36 39 0 0 0
SMALL
GASTEIGER

@<TRIPOS>ATOM
      1 C         140.3673  145.0583  162.2838 C.ar    1  UNL1        0.0528
      2 C         141.5819  144.3306  162.7792 C.ar    1  UNL1        0.0161
      3 C         141.5030  143.5023  164.0271 C.ar    1  UNL1        0.0181
      4 C         140.2094  143.4014  164.7798 C.ar    1  UNL1        0.0757
      5 C         138.9948  144.1290  164.2845 C.ar    1  UNL1        0.1545
      6 F         137.7012  144.0282  165.0372 F       1  UNL1       -0.2028
      7 C         139.0737  144.9574  163.0365 C.ar    1  UNL1        0.0456
      8 N         140.1305  142.5730  166.0279 N.pl3   1  UNL1       -0.3057
      9 C         140.3685  143.2079  167.3658 C.3     1  UNL1        0.0922
     10 C         140.2896  142.3795  168.6138 C.3     1  UNL1        0.0374
     11 C         139.9727  140.9161  168.5238 C.3     1  UNL1        0.0610
     12 C         139.7347  140.2812  167.1858 C.3     1  UNL1        0.0374
     13 C         139.8136  141.1096  165.9379 C.3     1  UNL1        0.0922
     14 N         139.8937  140.0877  169.7718 N.3     1  UNL1       -0.2706
     15 C         138.5698  139.8621  170.4398 C.3     1  UNL1        0.0897
     16 C         141.1388  139.4849  170.3518 C.3     1  UNL1        0.1042
     17 C         142.4766  140.0936  170.0522 C.3     1  UNL1        0.1544
     18 O         143.6386  139.8375  170.9656 O.3     1  UNL1       -0.3805
     19 H         143.4659  140.2426  171.8298 H       1  UNL1        0.2105
     20 N         140.4462  145.8866  161.0358 N.pl3   1  UNL1       -0.2825
     21 H         140.4206  146.8691  161.0947 H       1  UNL1        0.1551
     22 C         140.9180  143.2131  155.6852 C.3     1  UNL1        0.0342
     23 C         140.8001  143.8815  157.0228 C.ar    1  UNL1        0.0152
     24 C         141.7921  144.9315  157.4266 C.ar    1  UNL1        0.0990
     25 N         141.6742  145.5999  158.7643 N.ar    1  UNL1       -0.2123
     26 C         140.5642  145.2182  159.6982 C.ar    1  UNL1        0.2207
     27 N         139.5721  144.1682  159.2944 N.ar    1  UNL1       -0.2138
     28 C         139.6900  143.4998  157.9567 C.ar    1  UNL1        0.0847
     29 C         138.6979  142.4497  157.5529 C.ar    1  UNL1        0.0571
     30 C         138.7680  140.9915  157.8975 C.ar    1  UNL1        0.1231
     31 N         137.5749  140.3140  157.2912 N.ar    1  UNL1       -0.1677
     32 N         136.7673  141.3536  156.5719 N.ar    1  UNL1       -0.2513
     33 C         137.4614  142.6735  156.7337 C.ar    1  UNL1        0.0980
     34 C         135.4901  141.1151  155.8225 C.3     1  UNL1        0.1054
     35 C         135.3133  141.6781  154.4435 C.3     1  UNL1        0.0263
     36 C         134.3895  140.3136  156.4522 C.3     1  UNL1        0.0263
@<TRIPOS>BOND
     1    22    23    1
     2    23    24   ar
     3    24    25   ar
     4    25    26   ar
     5    26    20    1
     6    20     1    1
     7     1     2   ar
     8     2     3   ar
     9     3     4   ar
    10     4     8    1
    11     8     9    1
    12     9    10    1
    13    10    11    1
    14    11    14    1
    15    14    15    1
    16    14    16    1
    17    16    17    1
    18    17    18    1
    19    11    12    1
    20    12    13    1
    21     4     5   ar
    22     5     6    1
    23     5     7   ar
    24    26    27   ar
    25    27    28   ar
    26    28    29    1
    27    29    30   ar
    28    30    31   ar
    29    31    32   ar
    30    32    34    1
    31    34    35    1
    32    34    36    1
    33    32    33   ar
    34    28    23   ar
    35    33    29   ar
    36     7     1   ar
    37    13     8    1
    38    20    21    1
    39    18    19    1
@<TRIPOS>MOLECULE
*****
 36 39 0 0 0
SMALL
GASTEIGER

@<TRIPOS>ATOM
      1 C         142.7369  137.9989  161.8125 C.ar    1  UNL1        0.0528
      2 C         143.7934  138.9311  162.3271 C.ar    1  UNL1        0.0161
      3 C         143.6394  139.5676  163.6766 C.ar    1  UNL1        0.0181
      4 C         142.4288  139.2719  164.5115 C.ar    1  UNL1        0.0757
      5 C         141.3723  138.3398  163.9970 C.ar    1  UNL1        0.1545
      6 F         140.1617  138.0441  164.8319 F       1  UNL1       -0.2028
      7 C         141.5263  137.7032  162.6474 C.ar    1  UNL1        0.0456
      8 N         142.2748  139.9085  165.8611 N.pl3   1  UNL1       -0.3057
      9 C         141.6037  141.2439  165.9882 C.3     1  UNL1        0.0922
     10 C         141.4497  141.8804  167.3377 C.3     1  UNL1        0.0374
     11 C         141.9668  141.1814  168.5600 C.3     1  UNL1        0.0610
     12 C         142.6379  139.8460  168.4329 C.3     1  UNL1        0.0374
     13 C         142.7919  139.2095  167.0834 C.3     1  UNL1        0.0922
     14 N         141.8127  141.8180  169.9095 N.3     1  UNL1       -0.2706
     15 C         142.8791  142.7339  170.4329 C.3     1  UNL1        0.0897
     16 C         140.5923  141.5386  170.7356 C.3     1  UNL1        0.1042
     17 C         139.7735  140.3098  170.4722 C.3     1  UNL1        0.1544
     18 O         139.7298  139.2059  171.4868 O.3     1  UNL1       -0.3805
     19 H         140.6084  138.8021  171.5633 H       1  UNL1        0.2105
     20 N         142.8910  137.3624  160.4631 N.pl3   1  UNL1       -0.2825
     21 H         143.0940  136.4017  160.3922 H       1  UNL1        0.1551
     22 C         142.2699  140.6715  155.4967 C.3     1  UNL1        0.0342
     23 C         142.4251  139.8442  156.7383 C.ar    1  UNL1        0.0152
     24 C         141.3037  138.9588  157.1947 C.ar    1  UNL1        0.0990
     25 N         141.4590  138.1315  158.4363 N.ar    1  UNL1       -0.2123
     26 C         142.7357  138.1897  159.2215 C.ar    1  UNL1        0.2207
     27 N         143.8571  139.0751  158.7651 N.ar    1  UNL1       -0.2138
     28 C         143.7019  139.9023  157.5235 C.ar    1  UNL1        0.0847
     29 C         144.8234  140.7878  157.0671 C.ar    1  UNL1        0.0571
     30 C         145.1714  142.1325  157.6333 C.ar    1  UNL1        0.1231
     31 N         146.3569  142.6597  156.8805 N.ar    1  UNL1       -0.1677
     32 N         146.7416  141.6408  155.8490 N.ar    1  UNL1       -0.2513
     33 C         145.7938  140.4839  155.9644 C.ar    1  UNL1        0.0980
     34 C         147.8750  141.7582  154.8735 C.3     1  UNL1        0.1054
     35 C         147.5908  141.9457  153.4127 C.3     1  UNL1        0.0263
     36 C         149.2926  141.6881  155.3589 C.3     1  UNL1        0.0263
@<TRIPOS>BOND
     1    22    23    1
     2    23    24   ar
     3    24    25   ar
     4    25    26   ar
     5    26    20    1
     6    20     1    1
     7     1     2   ar
     8     2     3   ar
     9     3     4   ar
    10     4     8    1
    11     8     9    1
    12     9    10    1
    13    10    11    1
    14    11    14    1
    15    14    15    1
    16    14    16    1
    17    16    17    1
    18    17    18    1
    19    11    12    1
    20    12    13    1
    21     4     5   ar
    22     5     6    1
    23     5     7   ar
    24    26    27   ar
    25    27    28   ar
    26    28    29    1
    27    29    30   ar
    28    30    31   ar
    29    31    32   ar
    30    32    34    1
    31    34    35    1
    32    34    36    1
    33    32    33   ar
    34    28    23   ar
    35    33    29   ar
    36     7     1   ar
    37    13     8    1
    38    20    21    1
    39    18    19    1
@<TRIPOS>MOLECULE
*****
 36 39 0 0 0
SMALL
GASTEIGER

@<TRIPOS>ATOM
      1 C         143.0072  138.5410  160.9420 C.ar    1  UNL1        0.0528
      2 C         143.4197  139.8313  161.5865 C.ar    1  UNL1        0.0161
      3 C         143.0299  140.1187  163.0061 C.ar    1  UNL1        0.0181
      4 C         142.2277  139.1160  163.7813 C.ar    1  UNL1        0.0757
      5 C         141.8153  137.8258  163.1370 C.ar    1  UNL1        0.1545
      6 F         141.0131  136.8231  163.9122 F       1  UNL1       -0.2028
      7 C         142.2050  137.5383  161.7172 C.ar    1  UNL1        0.0456
      8 N         141.8380  139.4035  165.2011 N.pl3   1  UNL1       -0.3057
      9 C         140.4153  139.7425  165.5343 C.3     1  UNL1        0.0922
     10 C         140.0257  140.0300  166.9540 C.3     1  UNL1        0.0374
     11 C         141.0586  139.9784  168.0404 C.3     1  UNL1        0.0610
     12 C         142.4813  139.6394  167.7071 C.3     1  UNL1        0.0374
     13 C         142.8710  139.3520  166.2875 C.3     1  UNL1        0.0922
     14 N         140.6689  140.2660  169.4601 N.3     1  UNL1       -0.2706
     15 C         139.2197  140.3520  169.8373 C.3     1  UNL1        0.0897
     16 C         141.7284  140.4674  170.5026 C.3     1  UNL1        0.1042
     17 C         142.2753  141.8401  170.7607 C.3     1  UNL1        0.1544
     18 O         142.1827  142.4384  172.1331 O.3     1  UNL1       -0.3805
     19 H         141.2513  142.5899  172.3576 H       1  UNL1        0.2105
     20 N         143.3970  138.2536  159.5224 N.pl3   1  UNL1       -0.2825
     21 H         144.3452  138.2736  159.2585 H       1  UNL1        0.1551
     22 C         139.1768  136.9818  155.4514 C.3     1  UNL1        0.0342
     23 C         140.2318  137.2998  156.4692 C.ar    1  UNL1        0.0152
     24 C         139.9781  138.3502  157.5094 C.ar    1  UNL1        0.0990
     25 N         141.0332  138.6682  158.5271 N.ar    1  UNL1       -0.2123
     26 C         142.3419  137.9357  158.5046 C.ar    1  UNL1        0.2207
     27 N         142.5956  136.8852  157.4644 N.ar    1  UNL1       -0.2138
     28 C         141.5406  136.5673  156.4467 C.ar    1  UNL1        0.0847
     29 C         141.7943  135.5167  155.4064 C.ar    1  UNL1        0.0571
     30 C         142.1275  135.7654  153.9652 C.ar    1  UNL1        0.1231
     31 N         142.2986  134.4355  153.2928 N.ar    1  UNL1       -0.1677
     32 N         142.0710  133.3648  154.3185 N.ar    1  UNL1       -0.2513
     33 C         141.7594  134.0331  155.6247 C.ar    1  UNL1        0.0980
     34 C         142.1425  131.8857  154.0798 C.3     1  UNL1        0.1054
     35 C         140.8815  131.0922  153.9064 C.3     1  UNL1        0.0263
     36 C         143.4751  131.2001  154.0146 C.3     1  UNL1        0.0263
@<TRIPOS>BOND
     1    22    23    1
     2    23    24   ar
     3    24    25   ar
     4    25    26   ar
     5    26    20    1
     6    20     1    1
     7     1     2   ar
     8     2     3   ar
     9     3     4   ar
    10     4     8    1
    11     8     9    1
    12     9    10    1
    13    10    11    1
    14    11    14    1
    15    14    15    1
    16    14    16    1
    17    16    17    1
    18    17    18    1
    19    11    12    1
    20    12    13    1
    21     4     5   ar
    22     5     6    1
    23     5     7   ar
    24    26    27   ar
    25    27    28   ar
    26    28    29    1
    27    29    30   ar
    28    30    31   ar
    29    31    32   ar
    30    32    34    1
    31    34    35    1
    32    34    36    1
    33    32    33   ar
    34    28    23   ar
    35    33    29   ar
    36     7     1   ar
    37    13     8    1
    38    20    21    1
    39    18    19    1
@<TRIPOS>MOLECULE
*****
 36 39 0 0 0
SMALL
GASTEIGER

@<TRIPOS>ATOM
      1 C         143.5317  139.4834  160.3403 C.ar    1  UNL1        0.0528
      2 C         144.1138  140.5772  161.1859 C.ar    1  UNL1        0.0161
      3 C         143.8990  140.5725  162.6704 C.ar    1  UNL1        0.0181
      4 C         143.1021  139.4741  163.3094 C.ar    1  UNL1        0.0757
      5 C         142.5200  138.3804  162.4640 C.ar    1  UNL1        0.1545
      6 F         141.7231  137.2819  163.1030 F       1  UNL1       -0.2028
      7 C         142.7348  138.3850  160.9794 C.ar    1  UNL1        0.0456
      8 N         142.8873  139.4695  164.7940 N.pl3   1  UNL1       -0.3057
      9 C         141.9607  140.4686  165.4209 C.3     1  UNL1        0.0922
     10 C         141.7459  140.4640  166.9054 C.3     1  UNL1        0.0374
     11 C         142.4578  139.4601  167.7630 C.3     1  UNL1        0.0610
     12 C         143.3844  138.4609  167.1362 C.3     1  UNL1        0.0374
     13 C         143.5991  138.4656  165.6517 C.3     1  UNL1        0.0922
     14 N         142.2429  139.4555  169.2476 N.3     1  UNL1       -0.2706
     15 C         142.9370  138.4371  170.1027 C.3     1  UNL1        0.0897
     16 C         141.3341  140.4692  169.8771 C.3     1  UNL1        0.1042
     17 C         139.9013  140.1224  170.1542 C.3     1  UNL1        0.1544
     18 O         139.5457  139.3194  171.3702 O.3     1  UNL1       -0.3805
     19 H         139.9158  138.4265  171.2876 H       1  UNL1        0.2105
     20 N         143.7465  139.4881  158.8559 N.pl3   1  UNL1       -0.2825
     21 H         144.4779  140.0195  158.4660 H       1  UNL1        0.1551
     22 C         140.1488  136.2683  155.2937 C.3     1  UNL1        0.0342
     23 C         141.0482  137.0732  156.1843 C.ar    1  UNL1        0.0152
     24 C         140.6042  138.4170  156.6814 C.ar    1  UNL1        0.0990
     25 N         141.5037  139.2219  157.5719 N.ar    1  UNL1       -0.2123
     26 C         142.8471  138.6832  157.9653 C.ar    1  UNL1        0.2207
     27 N         143.2911  137.3394  157.4682 N.ar    1  UNL1       -0.2138
     28 C         142.3917  136.5345  156.5777 C.ar    1  UNL1        0.0847
     29 C         142.8357  135.1907  156.0805 C.ar    1  UNL1        0.0571
     30 C         142.6573  134.6627  154.6879 C.ar    1  UNL1        0.1231
     31 N         143.2475  133.2847  154.6355 N.ar    1  UNL1       -0.1677
     32 N         143.7907  132.9610  155.9957 N.ar    1  UNL1       -0.2513
     33 C         143.5363  134.1390  156.8888 C.ar    1  UNL1        0.0980
     34 C         144.4693  131.6836  156.3930 C.3     1  UNL1        0.1054
     35 C         144.9490  131.4960  157.8018 C.3     1  UNL1        0.0263
     36 C         144.6682  130.5939  155.3816 C.3     1  UNL1        0.0263
@<TRIPOS>BOND
     1    22    23    1
     2    23    24   ar
     3    24    25   ar
     4    25    26   ar
     5    26    20    1
     6    20     1    1
     7     1     2   ar
     8     2     3   ar
     9     3     4   ar
    10     4     8    1
    11     8     9    1
    12     9    10    1
    13    10    11    1
    14    11    14    1
    15    14    15    1
    16    14    16    1
    17    16    17    1
    18    17    18    1
    19    11    12    1
    20    12    13    1
    21     4     5   ar
    22     5     6    1
    23     5     7   ar
    24    26    27   ar
    25    27    28   ar
    26    28    29    1
    27    29    30   ar
    28    30    31   ar
    29    31    32   ar
    30    32    34    1
    31    34    35    1
    32    34    36    1
    33    32    33   ar
    34    28    23   ar
    35    33    29   ar
    36     7     1   ar
    37    13     8    1
    38    20    21    1
    39    18    19    1
@<TRIPOS>MOLECULE
*****
 36 39 0 0 0
SMALL
GASTEIGER

@<TRIPOS>ATOM
      1 C         138.2394  139.8068  160.4538 C.ar    1  UNL1        0.0528
      2 C         139.0725  138.7518  161.1194 C.ar    1  UNL1        0.0161
      3 C         139.2918  138.7944  162.6026 C.ar    1  UNL1        0.0181
      4 C         138.6780  139.8919  163.4203 C.ar    1  UNL1        0.0757
      5 C         137.8449  140.9469  162.7548 C.ar    1  UNL1        0.1545
      6 F         137.2311  142.0444  163.5725 F       1  UNL1       -0.2028
      7 C         137.6256  140.9044  161.2715 C.ar    1  UNL1        0.0456
      8 N         138.8973  139.9344  164.9037 N.pl3   1  UNL1       -0.3057
      9 C         139.8238  140.9546  165.4959 C.3     1  UNL1        0.0922
     10 C         140.0431  140.9970  166.9791 C.3     1  UNL1        0.0374
     11 C         139.3358  140.0194  167.8701 C.3     1  UNL1        0.0610
     12 C         138.4092  138.9993  167.2779 C.3     1  UNL1        0.0374
     13 C         138.1899  138.9568  165.7947 C.3     1  UNL1        0.0922
     14 N         139.5551  140.0619  169.3535 N.3     1  UNL1       -0.2706
     15 C         138.3798  140.1066  170.2844 C.3     1  UNL1        0.0897
     16 C         140.9497  140.0597  169.9058 C.3     1  UNL1        0.1042
     17 C         142.0389  139.3181  169.1893 C.3     1  UNL1        0.1544
     18 O         142.9955  138.4593  169.9622 O.3     1  UNL1       -0.3805
     19 H         143.5347  139.0182  170.5433 H       1  UNL1        0.2105
     20 N         138.0202  139.7643  158.9705 N.pl3   1  UNL1       -0.2825
     21 H         137.1088  139.8373  158.6053 H       1  UNL1        0.1551
     22 C         142.6972  139.1487  155.2629 C.3     1  UNL1        0.0342
     23 C         141.5279  139.3026  156.1898 C.ar    1  UNL1        0.0152
     24 C         141.1054  140.6683  156.6437 C.ar    1  UNL1        0.0990
     25 N         139.9361  140.8222  157.5706 N.ar    1  UNL1       -0.2123
     26 C         139.1894  139.6104  158.0436 C.ar    1  UNL1        0.2207
     27 N         139.6120  138.2446  157.5897 N.ar    1  UNL1       -0.2138
     28 C         140.7812  138.0907  156.6628 C.ar    1  UNL1        0.0847
     29 C         141.2037  136.7248  156.2088 C.ar    1  UNL1        0.0571
     30 C         140.5973  135.9438  155.0809 C.ar    1  UNL1        0.1231
     31 N         141.3257  134.6365  154.9781 N.ar    1  UNL1       -0.1677
     32 N         142.3822  134.6096  156.0426 N.ar    1  UNL1       -0.2513
     33 C         142.3069  135.9003  156.8032 C.ar    1  UNL1        0.0980
     34 C         143.3451  133.4888  156.3010 C.3     1  UNL1        0.1054
     35 C         144.1370  133.4591  157.5746 C.3     1  UNL1        0.0263
     36 C         143.5160  132.3978  155.2859 C.3     1  UNL1        0.0263
@<TRIPOS>BOND
     1    22    23    1
     2    23    24   ar
     3    24    25   ar
     4    25    26   ar
     5    26    20    1
     6    20     1    1
     7     1     2   ar
     8     2     3   ar
     9     3     4   ar
    10     4     8    1
    11     8     9    1
    12     9    10    1
    13    10    11    1
    14    11    14    1
    15    14    15    1
    16    14    16    1
    17    16    17    1
    18    17    18    1
    19    11    12    1
    20    12    13    1
    21     4     5   ar
    22     5     6    1
    23     5     7   ar
    24    26    27   ar
    25    27    28   ar
    26    28    29    1
    27    29    30   ar
    28    30    31   ar
    29    31    32   ar
    30    32    34    1
    31    34    35    1
    32    34    36    1
    33    32    33   ar
    34    28    23   ar
    35    33    29   ar
    36     7     1   ar
    37    13     8    1
    38    20    21    1
    39    18    19    1
@<TRIPOS>MOLECULE
*****
 36 39 0 0 0
SMALL
GASTEIGER

@<TRIPOS>ATOM
      1 C         138.6212  139.5765  160.8622 C.ar    1  UNL1        0.0528
      2 C         139.2317  140.8374  161.3985 C.ar    1  UNL1        0.0161
      3 C         139.6747  140.9064  162.8299 C.ar    1  UNL1        0.0181
      4 C         139.5072  139.7145  163.7251 C.ar    1  UNL1        0.0757
      5 C         138.8967  138.4537  163.1889 C.ar    1  UNL1        0.1545
      6 F         138.7293  137.2618  164.0841 F       1  UNL1       -0.2028
      7 C         138.4537  138.3847  161.7574 C.ar    1  UNL1        0.0456
      8 N         139.9502  139.7835  165.1565 N.pl3   1  UNL1       -0.3057
      9 C         138.9309  139.8127  166.2565 C.3     1  UNL1        0.0922
     10 C         139.3740  139.8817  167.6879 C.3     1  UNL1        0.0374
     11 C         140.8364  139.9216  168.0193 C.3     1  UNL1        0.0610
     12 C         141.8557  139.8924  166.9193 C.3     1  UNL1        0.0374
     13 C         141.4126  139.8234  165.4879 C.3     1  UNL1        0.0922
     14 N         141.2794  139.9906  169.4508 N.3     1  UNL1       -0.2706
     15 C         142.3029  139.0230  169.9665 C.3     1  UNL1        0.0897
     16 C         140.6988  141.0272  170.3664 C.3     1  UNL1        0.1042
     17 C         141.4905  142.2548  170.7072 C.3     1  UNL1        0.1544
     18 O         142.2247  142.3353  172.0127 O.3     1  UNL1       -0.3805
     19 H         141.5860  142.3463  172.7427 H       1  UNL1        0.2105
     20 N         138.1782  139.5076  159.4308 N.pl3   1  UNL1       -0.2825
     21 H         137.2183  139.4862  159.2131 H       1  UNL1        0.1551
     22 C         142.2561  139.3619  155.0320 C.3     1  UNL1        0.0342
     23 C         141.2366  139.3983  156.1317 C.ar    1  UNL1        0.0152
     24 C         140.4968  140.6694  156.4268 C.ar    1  UNL1        0.0990
     25 N         139.4773  140.7058  157.5265 N.ar    1  UNL1       -0.2123
     26 C         139.1976  139.4712  158.3311 C.ar    1  UNL1        0.2207
     27 N         139.9375  138.2001  158.0360 N.ar    1  UNL1       -0.2138
     28 C         140.9569  138.1637  156.9363 C.ar    1  UNL1        0.0847
     29 C         141.6968  136.8926  156.6412 C.ar    1  UNL1        0.0571
     30 C         142.9745  136.4458  157.2875 C.ar    1  UNL1        0.1231
     31 N         143.3561  135.1222  156.6938 N.ar    1  UNL1       -0.1677
     32 N         142.3142  134.7510  155.6805 N.ar    1  UNL1       -0.2513
     33 C         141.2886  135.8451  155.6481 C.ar    1  UNL1        0.0980
     34 C         142.3002  133.5044  154.8463 C.3     1  UNL1        0.1054
     35 C         143.0831  132.3015  155.2822 C.3     1  UNL1        0.0263
     36 C         141.5034  133.4609  153.5762 C.3     1  UNL1        0.0263
@<TRIPOS>BOND
     1    22    23    1
     2    23    24   ar
     3    24    25   ar
     4    25    26   ar
     5    26    20    1
     6    20     1    1
     7     1     2   ar
     8     2     3   ar
     9     3     4   ar
    10     4     8    1
    11     8     9    1
    12     9    10    1
    13    10    11    1
    14    11    14    1
    15    14    15    1
    16    14    16    1
    17    16    17    1
    18    17    18    1
    19    11    12    1
    20    12    13    1
    21     4     5   ar
    22     5     6    1
    23     5     7   ar
    24    26    27   ar
    25    27    28   ar
    26    28    29    1
    27    29    30   ar
    28    30    31   ar
    29    31    32   ar
    30    32    34    1
    31    34    35    1
    32    34    36    1
    33    32    33   ar
    34    28    23   ar
    35    33    29   ar
    36     7     1   ar
    37    13     8    1
    38    20    21    1
    39    18    19    1
@<TRIPOS>MOLECULE
*****
 36 39 0 0 0
SMALL
GASTEIGER

@<TRIPOS>ATOM
      1 C         141.2876  141.8777  159.8382 C.ar    1  UNL1        0.0528
      2 C         140.2842  140.7833  160.0520 C.ar    1  UNL1        0.0161
      3 C         140.3545  139.5303  159.2304 C.ar    1  UNL1        0.0181
      4 C         141.4283  139.3716  158.1951 C.ar    1  UNL1        0.0757
      5 C         142.4316  140.4659  157.9813 C.ar    1  UNL1        0.1545
      6 F         143.5054  140.3071  156.9460 F       1  UNL1       -0.2028
      7 C         142.3613  141.7189  158.8029 C.ar    1  UNL1        0.0456
      8 N         141.4986  138.1185  157.3735 N.pl3   1  UNL1       -0.3057
      9 C         142.6521  137.1747  157.5424 C.3     1  UNL1        0.0922
     10 C         142.7224  135.9217  156.7208 C.3     1  UNL1        0.0374
     11 C         141.6391  135.6125  155.7304 C.3     1  UNL1        0.0610
     12 C         140.4856  136.5563  155.5615 C.3     1  UNL1        0.0374
     13 C         140.4153  137.8093  156.3831 C.3     1  UNL1        0.0922
     14 N         141.7094  134.3594  154.9088 N.3     1  UNL1       -0.2706
     15 C         141.9575  134.4438  153.4319 C.3     1  UNL1        0.0897
     16 C         141.5316  133.0219  155.5642 C.3     1  UNL1        0.1042
     17 C         142.7142  132.3129  156.1546 C.3     1  UNL1        0.1544
     18 O         142.7927  132.0907  157.6360 O.3     1  UNL1       -0.3805
     19 H         142.8741  132.9455  158.0873 H       1  UNL1        0.2105
     20 N         141.2173  143.1307  160.6598 N.pl3   1  UNL1       -0.2825
     21 H         140.6160  143.8624  160.3910 H       1  UNL1        0.1551
     22 C         144.6003  143.6832  165.5842 C.3     1  UNL1        0.0342
     23 C         143.7545  143.5451  164.3531 C.ar    1  UNL1        0.0152
     24 C         143.8691  144.5523  163.2475 C.ar    1  UNL1        0.0990
     25 N         143.0233  144.4142  162.0164 N.ar    1  UNL1       -0.2123
     26 C         142.0630  143.2688  161.8909 C.ar    1  UNL1        0.2207
     27 N         141.9485  142.2615  162.9964 N.ar    1  UNL1       -0.2138
     28 C         142.7942  142.3997  164.2275 C.ar    1  UNL1        0.0847
     29 C         142.6796  141.3923  165.3331 C.ar    1  UNL1        0.0571
     30 C         143.4290  140.0963  165.4261 C.ar    1  UNL1        0.1231
     31 N         143.0080  139.4072  166.6902 N.ar    1  UNL1       -0.1677
     32 N         141.9985  140.2774  167.3785 N.ar    1  UNL1       -0.2513
     33 C         141.7956  141.5043  166.5397 C.ar    1  UNL1        0.0980
     34 C         141.3124  139.9740  168.6774 C.3     1  UNL1        0.1054
     35 C         139.8422  140.2311  168.8269 C.3     1  UNL1        0.0263
     36 C         142.0965  139.4135  169.8267 C.3     1  UNL1        0.0263
@<TRIPOS>BOND
     1    22    23    1
     2    23    24   ar
     3    24    25   ar
     4    25    26   ar
     5    26    20    1
     6    20     1    1
     7     1     2   ar
     8     2     3   ar
     9     3     4   ar
    10     4     8    1
    11     8     9    1
    12     9    10    1
    13    10    11    1
    14    11    14    1
    15    14    15    1
    16    14    16    1
    17    16    17    1
    18    17    18    1
    19    11    12    1
    20    12    13    1
    21     4     5   ar
    22     5     6    1
    23     5     7   ar
    24    26    27   ar
    25    27    28   ar
    26    28    29    1
    27    29    30   ar
    28    30    31   ar
    29    31    32   ar
    30    32    34    1
    31    34    35    1
    32    34    36    1
    33    32    33   ar
    34    28    23   ar
    35    33    29   ar
    36     7     1   ar
    37    13     8    1
    38    20    21    1
    39    18    19    1
