@<TRIPOS>MOLECULE
*****
 40 45 0 0 0
SMALL
GASTEIGER

@<TRIPOS>ATOM
      1 C         142.8073  135.8019  157.6802 C.ar    1  UNL1        0.2400
      2 N         142.2371  135.3384  156.3725 N.ar    1  UNL1       -0.2090
      3 C         141.5184  136.3081  155.4820 C.ar    1  UNL1        0.1021
      4 C         141.1931  137.8107  155.5975 C.ar    1  UNL1        0.0207
      5 C         141.9517  137.2740  156.7750 C.ar    1  UNL1        0.0221
      6 C         142.6588  137.2351  158.0973 C.ar    1  UNL1        0.1178
      7 N         143.2290  137.6985  159.4050 N.pl3   1  UNL1       -0.2104
      8 S         143.5936  138.6086  160.5403 S.O2    1  UNL1        0.0737
      9 O         144.3279  138.4002  161.8315 O.2     1  UNL1       -0.1499
     10 O         144.0603  137.1967  160.7372 O.2     1  UNL1       -0.1499
     11 C         143.7086  139.8554  161.3663 C.ar    1  UNL1        0.1253
     12 C         144.4157  139.8165  162.6886 C.ar    1  UNL1        0.0202
     13 C         144.5306  141.0632  163.5146 C.ar    1  UNL1        0.0015
     14 C         143.9385  142.3490  163.0183 C.ar    1  UNL1        0.0046
     15 C         143.2315  142.3879  161.6960 C.ar    1  UNL1        0.0547
     16 C         143.1165  141.1411  160.8700 C.ar    1  UNL1        0.0247
     17 C         142.5739  144.0210  161.2449 C.2     1  UNL1        0.2461
     18 O         142.9385  144.9310  162.3802 O.2     1  UNL1       -0.2701
     19 N         141.8552  144.9906  160.3543 N.am    1  UNL1       -0.2969
     20 C         141.0966  145.5274  159.1769 C.3     1  UNL1        0.1166
     21 C         140.3895  145.5663  157.8545 C.ar    1  UNL1       -0.0025
     22 C         139.6846  146.6864  157.0636 C.ar    1  UNL1       -0.0026
     23 C         138.9775  146.7253  155.7412 C.ar    1  UNL1       -0.0002
     24 C         138.8626  145.4785  154.9152 C.ar    1  UNL1        0.0015
     25 C         139.4547  144.1928  155.4116 C.ar    1  UNL1        0.0175
     26 C         139.8192  145.1028  156.5468 C.ar    1  UNL1       -0.0011
     27 C         139.3397  142.9460  154.5856 C.ar    1  UNL1        0.0844
     28 N         138.6209  143.9157  153.6949 N.ar    1  UNL1       -0.2240
     29 C         138.0507  143.4521  152.3873 C.ar    1  UNL1        0.1988
     30 N         138.1992  142.0190  151.9701 N.ar    1  UNL1       -0.2240
     31 C         138.9180  141.0493  152.8608 C.ar    1  UNL1        0.0845
     32 C         139.1735  139.4193  152.5507 C.ar    1  UNL1        0.0192
     33 C         139.8781  138.3921  153.3864 C.ar    1  UNL1        0.0016
     34 C         140.4744  138.7804  154.7070 C.ar    1  UNL1        0.0017
     35 C         139.8823  140.0661  154.2106 C.ar    1  UNL1        0.0030
     36 C         139.4882  141.5128  154.1685 C.ar    1  UNL1        0.0354
     37 H         143.6176  136.8547  159.7307 H       1  UNL1        0.1739
     38 H         141.9307  145.8089  160.8964 H       1  UNL1        0.1501
     39 C         144.0857  133.5628  158.0003 C.3     1  UNL1        0.2543
     40 O         143.5260  134.8322  158.5708 O.3     1  UNL1       -0.4553
@<TRIPOS>BOND
     1    39    40    1
     2    40     1    1
     3     1     2   ar
     4     2     3   ar
     5     3     4   ar
     6     4     5   ar
     7     5     6   ar
     8     6     7    1
     9     7     8    1
    10     8     9    2
    11     8    10    2
    12     8    11    1
    13    11    12   ar
    14    12    13   ar
    15    13    14   ar
    16    14    15   ar
    17    15    16   ar
    18    15    17    1
    19    17    18    2
    20    17    19   am
    21    19    20    1
    22    20    21    1
    23    21    22   ar
    24    22    23   ar
    25    23    24   ar
    26    24    25   ar
    27    25    26   ar
    28    25    27    1
    29    27    28   ar
    30    28    29   ar
    31    29    30   ar
    32    30    31   ar
    33    31    32   ar
    34    32    33   ar
    35    33    34   ar
    36    34    35   ar
    37    35    36   ar
    38     6     1   ar
    39    16    11   ar
    40    26    21   ar
    41    36    27   ar
    42    34     4    1
    43    36    31   ar
    44     7    37    1
    45    19    38    1
@<TRIPOS>MOLECULE
*****
 40 45 0 0 0
SMALL
GASTEIGER

@<TRIPOS>ATOM
      1 C         140.1928  145.6977  155.0345 C.ar    1  UNL1        0.2400
      2 N         139.8039  146.8137  155.9582 N.ar    1  UNL1       -0.2090
      3 C         139.8447  146.6067  157.4433 C.ar    1  UNL1        0.1021
      4 C         140.2267  145.4085  158.3351 C.ar    1  UNL1        0.0207
      5 C         140.3500  145.1213  156.8680 C.ar    1  UNL1        0.0221
      6 C         140.6226  144.3747  155.5959 C.ar    1  UNL1        0.1178
      7 N         141.0115  143.2587  154.6722 N.pl3   1  UNL1       -0.2104
      8 S         141.4699  141.9079  154.2083 S.O2    1  UNL1        0.0737
      9 O         141.6955  141.3070  152.8526 O.2     1  UNL1       -0.1499
     10 O         141.1760  142.8546  153.0824 O.2     1  UNL1       -0.1499
     11 C         141.9425  140.4852  154.2601 C.ar    1  UNL1        0.1253
     12 C         142.2150  139.7386  152.9880 C.ar    1  UNL1        0.0202
     13 C         142.6876  138.3160  153.0399 C.ar    1  UNL1        0.0015
     14 C         142.8877  137.6400  154.3639 C.ar    1  UNL1        0.0046
     15 C         142.6151  138.3865  155.6360 C.ar    1  UNL1        0.0547
     16 C         142.1425  139.8092  155.5841 C.ar    1  UNL1        0.0247
     17 C         142.9074  137.4226  157.1487 C.2     1  UNL1        0.2461
     18 O         143.3658  136.0718  156.6848 O.2     1  UNL1       -0.2701
     19 N         142.9483  137.2158  158.6338 N.am    1  UNL1       -0.2969
     20 C         142.8250  137.5029  160.1009 C.3     1  UNL1        0.1166
     21 C         142.5524  138.2495  161.3730 C.ar    1  UNL1       -0.0025
     22 C         142.6503  137.8710  162.8644 C.ar    1  UNL1       -0.0026
     23 C         142.3777  138.6176  164.1365 C.ar    1  UNL1       -0.0002
     24 C         141.9051  140.0403  164.0846 C.ar    1  UNL1        0.0015
     25 C         141.7051  140.7163  162.7606 C.ar    1  UNL1        0.0175
     26 C         142.1635  139.3655  162.2968 C.ar    1  UNL1       -0.0011
     27 C         141.2325  142.1389  162.7087 C.ar    1  UNL1        0.0844
     28 N         141.2734  141.9321  164.1939 N.ar    1  UNL1       -0.2240
     29 C         140.8844  143.0481  165.1176 C.ar    1  UNL1        0.1988
     30 N         140.4546  144.3710  164.5563 N.ar    1  UNL1       -0.2240
     31 C         140.4138  144.5779  163.0711 C.ar    1  UNL1        0.0845
     32 C         139.9600  145.9861  162.2778 C.ar    1  UNL1        0.0192
     33 C         139.8938  146.2685  160.8061 C.ar    1  UNL1        0.0016
     34 C         140.2676  145.2015  159.8202 C.ar    1  UNL1        0.0017
     35 C         140.4676  144.5255  161.1442 C.ar    1  UNL1        0.0030
     36 C         140.8027  143.4619  162.1473 C.ar    1  UNL1        0.0354
     37 H         140.8802  143.7025  153.8032 H       1  UNL1        0.1739
     38 H         143.2584  136.2820  158.6678 H       1  UNL1        0.1501
     39 C         141.2941  146.5855  152.8553 C.3     1  UNL1        0.2543
     40 O         140.1519  145.9046  153.5495 O.3     1  UNL1       -0.4553
@<TRIPOS>BOND
     1    39    40    1
     2    40     1    1
     3     1     2   ar
     4     2     3   ar
     5     3     4   ar
     6     4     5   ar
     7     5     6   ar
     8     6     7    1
     9     7     8    1
    10     8     9    2
    11     8    10    2
    12     8    11    1
    13    11    12   ar
    14    12    13   ar
    15    13    14   ar
    16    14    15   ar
    17    15    16   ar
    18    15    17    1
    19    17    18    2
    20    17    19   am
    21    19    20    1
    22    20    21    1
    23    21    22   ar
    24    22    23   ar
    25    23    24   ar
    26    24    25   ar
    27    25    26   ar
    28    25    27    1
    29    27    28   ar
    30    28    29   ar
    31    29    30   ar
    32    30    31   ar
    33    31    32   ar
    34    32    33   ar
    35    33    34   ar
    36    34    35   ar
    37    35    36   ar
    38     6     1   ar
    39    16    11   ar
    40    26    21   ar
    41    36    27   ar
    42    34     4    1
    43    36    31   ar
    44     7    37    1
    45    19    38    1
@<TRIPOS>MOLECULE
*****
 40 45 0 0 0
SMALL
GASTEIGER

@<TRIPOS>ATOM
      1 C         142.8155  137.0538  155.5452 C.ar    1  UNL1        0.2400
      2 N         143.0759  136.0930  156.6673 N.ar    1  UNL1       -0.2090
      3 C         142.9187  136.5412  158.0901 C.ar    1  UNL1        0.1021
      4 C         142.5153  137.8799  158.7400 C.ar    1  UNL1        0.0207
      5 C         142.5291  137.9267  157.2407 C.ar    1  UNL1        0.0221
      6 C         142.3979  138.4628  155.8460 C.ar    1  UNL1        0.1178
      7 N         142.1376  139.4236  154.7239 N.pl3   1  UNL1       -0.2104
      8 S         141.7794  140.6932  154.0099 S.O2    1  UNL1        0.0737
      9 O         141.6956  141.0707  152.5606 O.2     1  UNL1       -0.1499
     10 O         142.1258  139.5670  153.0817 O.2     1  UNL1       -0.1499
     11 C         141.3666  142.1185  153.7900 C.ar    1  UNL1        0.1253
     12 C         141.2354  142.6546  152.3953 C.ar    1  UNL1        0.0202
     13 C         140.8227  144.0798  152.1754 C.ar    1  UNL1        0.0015
     14 C         140.5411  144.9689  153.3502 C.ar    1  UNL1        0.0046
     15 C         140.6723  144.4328  154.7450 C.ar    1  UNL1        0.0547
     16 C         141.0851  143.0076  154.9648 C.ar    1  UNL1        0.0247
     17 C         140.2955  145.6393  156.0508 C.2     1  UNL1        0.2461
     18 O         139.9374  146.9089  155.3368 O.2     1  UNL1       -0.2701
     19 N         140.1384  146.0873  157.4736 N.am    1  UNL1       -0.2969
     20 C         140.1246  146.0406  158.9728 C.3     1  UNL1        0.1166
     21 C         140.2558  145.5044  160.3676 C.ar    1  UNL1       -0.0025
     22 C         140.0488  146.1245  161.7639 C.ar    1  UNL1       -0.0026
     23 C         140.1800  145.5883  163.1587 C.ar    1  UNL1       -0.0002
     24 C         140.5928  144.1631  163.3785 C.ar    1  UNL1        0.0015
     25 C         140.8743  143.2740  162.2037 C.ar    1  UNL1        0.0175
     26 C         140.5162  144.5436  161.4897 C.ar    1  UNL1       -0.0011
     27 C         141.2871  141.8488  162.4236 C.ar    1  UNL1        0.0844
     28 N         141.1299  142.2969  163.8465 N.ar    1  UNL1       -0.2240
     29 C         141.3903  141.3361  164.9685 C.ar    1  UNL1        0.1988
     30 N         141.8079  139.9271  164.6678 N.ar    1  UNL1       -0.2240
     31 C         141.9650  139.4790  163.2448 C.ar    1  UNL1        0.0845
     32 C         142.4224  137.9473  162.7320 C.ar    1  UNL1        0.0192
     33 C         142.6004  137.4262  161.3367 C.ar    1  UNL1        0.0016
     34 C         142.3582  138.3280  160.1627 C.ar    1  UNL1        0.0017
     35 C         142.0766  139.2171  161.3376 C.ar    1  UNL1        0.0030
     36 C         141.7046  140.4398  162.1228 C.ar    1  UNL1        0.0354
     37 H         142.3224  138.8401  153.9528 H       1  UNL1        0.1739
     38 H         139.8675  147.0228  157.3293 H       1  UNL1        0.1501
     39 C         141.8582  135.8688  153.4407 C.3     1  UNL1        0.2543
     40 O         142.9727  136.6057  154.1224 O.3     1  UNL1       -0.4553
@<TRIPOS>BOND
     1    39    40    1
     2    40     1    1
     3     1     2   ar
     4     2     3   ar
     5     3     4   ar
     6     4     5   ar
     7     5     6   ar
     8     6     7    1
     9     7     8    1
    10     8     9    2
    11     8    10    2
    12     8    11    1
    13    11    12   ar
    14    12    13   ar
    15    13    14   ar
    16    14    15   ar
    17    15    16   ar
    18    15    17    1
    19    17    18    2
    20    17    19   am
    21    19    20    1
    22    20    21    1
    23    21    22   ar
    24    22    23   ar
    25    23    24   ar
    26    24    25   ar
    27    25    26   ar
    28    25    27    1
    29    27    28   ar
    30    28    29   ar
    31    29    30   ar
    32    30    31   ar
    33    31    32   ar
    34    32    33   ar
    35    33    34   ar
    36    34    35   ar
    37    35    36   ar
    38     6     1   ar
    39    16    11   ar
    40    26    21   ar
    41    36    27   ar
    42    34     4    1
    43    36    31   ar
    44     7    37    1
    45    19    38    1
@<TRIPOS>MOLECULE
*****
 40 45 0 0 0
SMALL
GASTEIGER

@<TRIPOS>ATOM
      1 C         138.3684  143.4668  153.6565 C.ar    1  UNL1        0.2400
      2 N         138.2476  144.7946  154.3437 N.ar    1  UNL1       -0.2090
      3 C         138.8168  144.9820  155.7187 C.ar    1  UNL1        0.1021
      4 C         139.5684  144.0494  156.6896 C.ar    1  UNL1        0.0207
      5 C         139.1936  143.3859  155.3975 C.ar    1  UNL1        0.0221
      6 C         139.0585  142.3263  154.3444 C.ar    1  UNL1        0.1178
      7 N         139.1793  140.9985  153.6573 N.pl3   1  UNL1       -0.2104
      8 S         139.5415  139.5625  153.4189 S.O2    1  UNL1        0.0737
      9 O         139.3232  138.6228  152.2703 O.2     1  UNL1       -0.1499
     10 O         138.8086  140.1890  152.2698 O.2     1  UNL1       -0.1499
     11 C         140.1014  138.1916  153.6581 C.ar    1  UNL1        0.1253
     12 C         139.9663  137.1320  152.6050 C.ar    1  UNL1        0.0202
     13 C         140.5262  135.7612  152.8442 C.ar    1  UNL1        0.0015
     14 C         141.2212  135.4499  154.1365 C.ar    1  UNL1        0.0046
     15 C         141.3564  136.5095  155.1896 C.ar    1  UNL1        0.0547
     16 C         140.7965  137.8803  154.9504 C.ar    1  UNL1        0.0247
     17 C         142.2235  135.9674  156.6919 C.2     1  UNL1        0.2461
     18 O         142.5858  134.5315  156.4536 O.2     1  UNL1       -0.2701
     19 N         142.7928  136.1549  158.0670 N.am    1  UNL1       -0.2969
     20 C         143.1676  136.8184  159.3590 C.3     1  UNL1        0.1166
     21 C         143.3027  137.8780  160.4121 C.ar    1  UNL1       -0.0025
     22 C         143.9395  137.9000  161.8160 C.ar    1  UNL1       -0.0026
     23 C         144.0747  138.9597  162.8691 C.ar    1  UNL1       -0.0002
     24 C         143.5148  140.3305  162.6299 C.ar    1  UNL1        0.0015
     25 C         142.8197  140.6418  161.3376 C.ar    1  UNL1        0.0175
     26 C         143.1819  139.2059  161.0993 C.ar    1  UNL1       -0.0011
     27 C         142.2598  142.0126  161.0984 C.ar    1  UNL1        0.0844
     28 N         142.8291  142.2001  162.4736 N.ar    1  UNL1       -0.2240
     29 C         142.7082  143.5280  163.1607 C.ar    1  UNL1        0.1988
     30 N         142.0182  144.6684  162.4728 N.ar    1  UNL1       -0.2240
     31 C         141.4489  144.4809  161.0977 C.ar    1  UNL1        0.0845
     32 C         140.6497  145.6437  160.1879 C.ar    1  UNL1        0.0192
     33 C         140.0561  145.5332  158.8148 C.ar    1  UNL1        0.0016
     34 C         140.1377  144.2368  158.0646 C.ar    1  UNL1        0.0017
     35 C         140.8327  143.9255  159.3569 C.ar    1  UNL1        0.0030
     36 C         141.5697  143.1531  160.4105 C.ar    1  UNL1        0.0354
     37 H         138.7231  141.2028  152.8091 H       1  UNL1        0.1739
     38 H         143.1603  135.2552  158.2240 H       1  UNL1        0.1501
     39 C         136.3131  143.2882  152.0773 C.3     1  UNL1        0.2543
     40 O         137.7991  143.2794  152.2815 O.3     1  UNL1       -0.4553
@<TRIPOS>BOND
     1    39    40    1
     2    40     1    1
     3     1     2   ar
     4     2     3   ar
     5     3     4   ar
     6     4     5   ar
     7     5     6   ar
     8     6     7    1
     9     7     8    1
    10     8     9    2
    11     8    10    2
    12     8    11    1
    13    11    12   ar
    14    12    13   ar
    15    13    14   ar
    16    14    15   ar
    17    15    16   ar
    18    15    17    1
    19    17    18    2
    20    17    19   am
    21    19    20    1
    22    20    21    1
    23    21    22   ar
    24    22    23   ar
    25    23    24   ar
    26    24    25   ar
    27    25    26   ar
    28    25    27    1
    29    27    28   ar
    30    28    29   ar
    31    29    30   ar
    32    30    31   ar
    33    31    32   ar
    34    32    33   ar
    35    33    34   ar
    36    34    35   ar
    37    35    36   ar
    38     6     1   ar
    39    16    11   ar
    40    26    21   ar
    41    36    27   ar
    42    34     4    1
    43    36    31   ar
    44     7    37    1
    45    19    38    1
@<TRIPOS>MOLECULE
*****
 40 45 0 0 0
SMALL
GASTEIGER

@<TRIPOS>ATOM
      1 C         142.9707  137.6395  156.0269 C.ar    1  UNL1        0.2400
      2 N         143.2034  136.5498  157.0311 N.ar    1  UNL1       -0.2090
      3 C         142.9411  136.8023  158.4862 C.ar    1  UNL1        0.1021
      4 C         142.4421  138.0298  159.2745 C.ar    1  UNL1        0.0207
      5 C         142.5449  138.2727  157.7979 C.ar    1  UNL1        0.0221
      6 C         142.4758  138.9818  156.4779 C.ar    1  UNL1        0.1178
      7 N         142.2431  140.0715  155.4737 N.pl3   1  UNL1       -0.2104
      8 S         141.8749  141.4105  154.9066 S.O2    1  UNL1        0.0737
      9 O         141.8632  141.9711  153.5153 O.2     1  UNL1       -0.1499
     10 O         142.3249  140.4279  153.8663 O.2     1  UNL1       -0.1499
     11 C         141.4156  142.8371  154.8447 C.ar    1  UNL1        0.1253
     12 C         141.3465  143.5462  153.5247 C.ar    1  UNL1        0.0202
     13 C         140.8872  144.9728  153.4629 C.ar    1  UNL1        0.0015
     14 C         140.4971  145.6903  154.7211 C.ar    1  UNL1        0.0046
     15 C         140.5662  144.9812  156.0411 C.ar    1  UNL1        0.0547
     16 C         141.0254  143.5546  156.1029 C.ar    1  UNL1        0.0247
     17 C         140.0595  145.9928  157.4633 C.2     1  UNL1        0.2461
     18 O         139.6913  147.3317  156.8961 O.2     1  UNL1       -0.2701
     19 N         139.7972  146.2452  158.9184 N.am    1  UNL1       -0.2969
     20 C         139.6944  146.0024  160.3950 C.3     1  UNL1        0.1166
     21 C         139.7635  145.2932  161.7151 C.ar    1  UNL1       -0.0025
     22 C         139.4458  145.7178  163.1627 C.ar    1  UNL1       -0.0026
     23 C         139.5150  145.0086  164.4827 C.ar    1  UNL1       -0.0002
     24 C         139.9742  143.5820  164.5446 C.ar    1  UNL1        0.0015
     25 C         140.3644  142.8645  163.2864 C.ar    1  UNL1        0.0175
     26 C         139.9962  144.2035  162.7192 C.ar    1  UNL1       -0.0011
     27 C         140.8237  141.4380  163.3482 C.ar    1  UNL1        0.0844
     28 N         140.5614  141.6904  164.8034 N.ar    1  UNL1       -0.2240
     29 C         140.7941  140.6007  165.8075 C.ar    1  UNL1        0.1988
     30 N         141.2890  139.2584  165.3566 N.ar    1  UNL1       -0.2240
     31 C         141.5513  139.0060  163.9014 C.ar    1  UNL1        0.0845
     32 C         142.1041  137.5712  163.2274 C.ar    1  UNL1        0.0192
     33 C         142.3886  137.2436  161.7915 C.ar    1  UNL1        0.0016
     34 C         142.1798  138.2823  160.7296 C.ar    1  UNL1        0.0017
     35 C         141.7896  138.9998  161.9878 C.ar    1  UNL1        0.0030
     36 C         141.3187  140.0957  162.8972 C.ar    1  UNL1        0.0354
     37 H         142.4992  139.6006  154.6480 H       1  UNL1        0.1739
     38 H         139.4958  147.1816  158.8778 H       1  UNL1        0.1501
     39 C         142.2512  136.5964  153.7588 C.3     1  UNL1        0.2543
     40 O         143.2330  137.3870  154.5718 O.3     1  UNL1       -0.4553
@<TRIPOS>BOND
     1    39    40    1
     2    40     1    1
     3     1     2   ar
     4     2     3   ar
     5     3     4   ar
     6     4     5   ar
     7     5     6   ar
     8     6     7    1
     9     7     8    1
    10     8     9    2
    11     8    10    2
    12     8    11    1
    13    11    12   ar
    14    12    13   ar
    15    13    14   ar
    16    14    15   ar
    17    15    16   ar
    18    15    17    1
    19    17    18    2
    20    17    19   am
    21    19    20    1
    22    20    21    1
    23    21    22   ar
    24    22    23   ar
    25    23    24   ar
    26    24    25   ar
    27    25    26   ar
    28    25    27    1
    29    27    28   ar
    30    28    29   ar
    31    29    30   ar
    32    30    31   ar
    33    31    32   ar
    34    32    33   ar
    35    33    34   ar
    36    34    35   ar
    37    35    36   ar
    38     6     1   ar
    39    16    11   ar
    40    26    21   ar
    41    36    27   ar
    42    34     4    1
    43    36    31   ar
    44     7    37    1
    45    19    38    1
@<TRIPOS>MOLECULE
*****
 40 45 0 0 0
SMALL
GASTEIGER

@<TRIPOS>ATOM
      1 C         142.8515  140.1292  154.7291 C.ar    1  UNL1        0.2400
      2 N         143.3564  138.8301  155.2837 N.ar    1  UNL1       -0.2090
      3 C         143.2877  138.5672  156.7588 C.ar    1  UNL1        0.1021
      4 C         142.7740  139.3891  157.9579 C.ar    1  UNL1        0.0207
      5 C         142.6256  140.0973  156.6440 C.ar    1  UNL1        0.0221
      6 C         142.2779  141.1653  155.6498 C.ar    1  UNL1        0.1178
      7 N         141.7730  142.4643  155.0952 N.pl3   1  UNL1       -0.2104
      8 S         141.1718  143.8377  155.0472 S.O2    1  UNL1        0.0737
      9 O         140.8869  144.7983  153.9309 O.2     1  UNL1       -0.1499
     10 O         141.5712  143.3166  153.6986 O.2     1  UNL1       -0.1499
     11 C         140.5466  145.1198  155.5115 C.ar    1  UNL1        0.1253
     12 C         140.1990  146.1878  154.5173 C.ar    1  UNL1        0.0202
     13 C         139.5739  147.4699  154.9816 C.ar    1  UNL1        0.0015
     14 C         139.2965  147.6839  156.4401 C.ar    1  UNL1        0.0046
     15 C         139.6441  146.6159  157.4343 C.ar    1  UNL1        0.0547
     16 C         140.2692  145.3338  156.9700 C.ar    1  UNL1        0.0247
     17 C         139.2429  147.0351  159.1565 C.2     1  UNL1        0.2461
     18 O         138.6416  148.4085  159.1085 O.2     1  UNL1       -0.2701
     19 N         139.1743  146.7721  160.6317 N.am    1  UNL1       -0.2969
     20 C         139.3227  146.0640  161.9456 C.3     1  UNL1        0.1166
     21 C         139.6704  144.9959  162.9398 C.ar    1  UNL1       -0.0025
     22 C         139.5263  144.8876  164.4710 C.ar    1  UNL1       -0.0026
     23 C         139.8740  143.8195  165.4652 C.ar    1  UNL1       -0.0002
     24 C         140.4991  142.5375  165.0009 C.ar    1  UNL1        0.0015
     25 C         140.7765  142.3234  163.5424 C.ar    1  UNL1        0.0175
     26 C         140.1753  143.6968  163.4944 C.ar    1  UNL1       -0.0011
     27 C         141.4016  141.0414  163.0781 C.ar    1  UNL1        0.0844
     28 N         141.3330  140.7784  164.5533 N.ar    1  UNL1       -0.2240
     29 C         141.8379  139.4794  165.1078 C.ar    1  UNL1        0.1988
     30 N         142.4114  138.4432  164.1873 N.ar    1  UNL1       -0.2240
     31 C         142.4801  138.7063  162.7120 C.ar    1  UNL1        0.0845
     32 C         143.0876  137.6629  161.5456 C.ar    1  UNL1        0.0192
     33 C         143.1897  137.8529  160.0612 C.ar    1  UNL1        0.0016
     34 C         142.7054  139.1261  159.4331 C.ar    1  UNL1        0.0017
     35 C         142.4279  139.3402  160.8916 C.ar    1  UNL1        0.0030
     36 C         141.9752  140.0053  162.1574 C.ar    1  UNL1        0.0354
     37 H         141.9551  142.3239  154.1380 H       1  UNL1        0.1739
     38 H         138.7640  147.6135  160.9364 H       1  UNL1        0.1501
     39 C         144.1392  141.0358  152.6628 C.3     1  UNL1        0.2543
     40 O         142.9201  140.3921  153.2540 O.3     1  UNL1       -0.4553
@<TRIPOS>BOND
     1    39    40    1
     2    40     1    1
     3     1     2   ar
     4     2     3   ar
     5     3     4   ar
     6     4     5   ar
     7     5     6   ar
     8     6     7    1
     9     7     8    1
    10     8     9    2
    11     8    10    2
    12     8    11    1
    13    11    12   ar
    14    12    13   ar
    15    13    14   ar
    16    14    15   ar
    17    15    16   ar
    18    15    17    1
    19    17    18    2
    20    17    19   am
    21    19    20    1
    22    20    21    1
    23    21    22   ar
    24    22    23   ar
    25    23    24   ar
    26    24    25   ar
    27    25    26   ar
    28    25    27    1
    29    27    28   ar
    30    28    29   ar
    31    29    30   ar
    32    30    31   ar
    33    31    32   ar
    34    32    33   ar
    35    33    34   ar
    36    34    35   ar
    37    35    36   ar
    38     6     1   ar
    39    16    11   ar
    40    26    21   ar
    41    36    27   ar
    42    34     4    1
    43    36    31   ar
    44     7    37    1
    45    19    38    1
@<TRIPOS>MOLECULE
*****
 40 45 0 0 0
SMALL
GASTEIGER

@<TRIPOS>ATOM
      1 C         142.8225  143.4584  161.9168 C.ar    1  UNL1        0.2400
      2 N         143.4723  142.3489  162.6893 N.ar    1  UNL1       -0.2090
      3 C         143.5428  140.9693  162.1047 C.ar    1  UNL1        0.1021
      4 C         143.0624  140.3577  160.7735 C.ar    1  UNL1        0.0207
      5 C         142.7534  141.8199  160.9022 C.ar    1  UNL1        0.0221
      6 C         142.2432  143.1883  160.5597 C.ar    1  UNL1        0.1178
      7 N         141.5934  144.2978  159.7873 N.pl3   1  UNL1       -0.2104
      8 S         140.8824  145.0146  158.6779 S.O2    1  UNL1        0.0737
      9 O         140.4335  146.4335  158.4907 O.2     1  UNL1       -0.1499
     10 O         141.2134  145.9010  159.8419 O.2     1  UNL1       -0.1499
     11 C         140.1958  145.2523  157.3656 C.ar    1  UNL1        0.1253
     12 C         139.6857  146.6207  157.0231 C.ar    1  UNL1        0.0202
     13 C         138.9991  146.8583  155.7108 C.ar    1  UNL1        0.0015
     14 C         138.8227  145.7277  154.7410 C.ar    1  UNL1        0.0046
     15 C         139.3329  144.3593  155.0835 C.ar    1  UNL1        0.0547
     16 C         140.0194  144.1217  156.3958 C.ar    1  UNL1        0.0247
     17 C         139.0381  143.1062  153.8007 C.2     1  UNL1        0.2461
     18 O         138.3270  143.8230  152.6914 O.2     1  UNL1       -0.2701
     19 N         139.1087  141.7266  153.2163 N.am    1  UNL1       -0.2969
     20 C         139.4176  140.2644  153.0875 C.3     1  UNL1        0.1166
     21 C         139.9278  138.8960  153.4300 C.ar    1  UNL1       -0.0025
     22 C         139.9155  137.5451  152.6872 C.ar    1  UNL1       -0.0026
     23 C         140.4257  136.1767  153.0297 C.ar    1  UNL1       -0.0002
     24 C         141.1123  135.9390  154.3420 C.ar    1  UNL1        0.0015
     25 C         141.2887  137.0697  155.3118 C.ar    1  UNL1        0.0175
     26 C         140.5776  137.7865  154.2025 C.ar    1  UNL1       -0.0011
     27 C         141.9752  136.8320  156.6241 C.ar    1  UNL1        0.0844
     28 N         142.0458  135.4523  156.0396 N.ar    1  UNL1       -0.2240
     29 C         142.6956  134.3429  156.8121 C.ar    1  UNL1        0.1988
     30 N         143.2748  134.6129  158.1691 N.ar    1  UNL1       -0.2240
     31 C         143.2043  135.9926  158.7536 C.ar    1  UNL1        0.0845
     32 C         143.7983  136.4675  160.2503 C.ar    1  UNL1        0.0192
     33 C         143.7660  137.8190  160.9001 C.ar    1  UNL1        0.0016
     34 C         143.1329  138.9782  160.1889 C.ar    1  UNL1        0.0017
     35 C         142.9565  137.8475  159.2192 C.ar    1  UNL1        0.0030
     36 C         142.5545  137.1022  157.9811 C.ar    1  UNL1        0.0354
     37 H         141.7092  145.0399  160.4238 H       1  UNL1        0.1739
     38 H         138.6581  141.8826  152.3550 H       1  UNL1        0.1501
     39 C         141.7525  145.1470  163.5763 C.3     1  UNL1        0.2543
     40 O         142.7519  144.8380  162.5013 O.3     1  UNL1       -0.4553
@<TRIPOS>BOND
     1    39    40    1
     2    40     1    1
     3     1     2   ar
     4     2     3   ar
     5     3     4   ar
     6     4     5   ar
     7     5     6   ar
     8     6     7    1
     9     7     8    1
    10     8     9    2
    11     8    10    2
    12     8    11    1
    13    11    12   ar
    14    12    13   ar
    15    13    14   ar
    16    14    15   ar
    17    15    16   ar
    18    15    17    1
    19    17    18    2
    20    17    19   am
    21    19    20    1
    22    20    21    1
    23    21    22   ar
    24    22    23   ar
    25    23    24   ar
    26    24    25   ar
    27    25    26   ar
    28    25    27    1
    29    27    28   ar
    30    28    29   ar
    31    29    30   ar
    32    30    31   ar
    33    31    32   ar
    34    32    33   ar
    35    33    34   ar
    36    34    35   ar
    37    35    36   ar
    38     6     1   ar
    39    16    11   ar
    40    26    21   ar
    41    36    27   ar
    42    34     4    1
    43    36    31   ar
    44     7    37    1
    45    19    38    1
@<TRIPOS>MOLECULE
*****
 40 45 0 0 0
SMALL
GASTEIGER

@<TRIPOS>ATOM
      1 C         143.9702  140.5221  162.1009 C.ar    1  UNL1        0.2400
      2 N         144.4750  139.1377  162.3816 N.ar    1  UNL1       -0.2090
      3 C         144.2104  138.0306  161.4049 C.ar    1  UNL1        0.1021
      4 C         143.4740  137.9659  160.0518 C.ar    1  UNL1        0.0207
      5 C         143.4710  139.3345  160.6660 C.ar    1  UNL1        0.0221
      6 C         143.2009  140.7992  160.8434 C.ar    1  UNL1        0.1178
      7 N         142.6961  142.1836  160.5627 N.pl3   1  UNL1       -0.2104
      8 S         142.0176  143.3205  159.8577 S.O2    1  UNL1        0.0737
      9 O         141.8344  144.7727  160.1858 O.2     1  UNL1       -0.1499
     10 O         142.6429  143.7185  161.1618 O.2     1  UNL1       -0.1499
     11 C         141.2472  144.0730  158.8135 C.ar    1  UNL1        0.1253
     12 C         140.9771  145.5377  158.9909 C.ar    1  UNL1        0.0202
     13 C         140.2067  146.2901  157.9467 C.ar    1  UNL1        0.0015
     14 C         139.7065  145.5778  156.7251 C.ar    1  UNL1        0.0046
     15 C         139.9767  144.1130  156.5476 C.ar    1  UNL1        0.0547
     16 C         140.7470  143.3606  157.5918 C.ar    1  UNL1        0.0247
     17 C         139.3022  143.4062  155.0152 C.2     1  UNL1        0.2461
     18 O         138.6237  144.5431  154.3102 O.2     1  UNL1       -0.2701
     19 N         139.0377  142.2990  154.0385 N.am    1  UNL1       -0.2969
     20 C         139.0406  140.9305  153.4243 C.3     1  UNL1        0.1166
     21 C         139.3108  139.4657  153.2469 C.ar    1  UNL1       -0.0025
     22 C         138.9533  138.4493  152.1442 C.ar    1  UNL1       -0.0026
     23 C         139.2235  136.9845  151.9668 C.ar    1  UNL1       -0.0002
     24 C         139.9939  136.2321  153.0110 C.ar    1  UNL1        0.0015
     25 C         140.4941  136.9444  154.2326 C.ar    1  UNL1        0.0175
     26 C         139.8156  138.0813  153.5276 C.ar    1  UNL1       -0.0011
     27 C         141.2644  136.1920  155.2768 C.ar    1  UNL1        0.0844
     28 N         140.9999  135.0847  154.3000 N.ar    1  UNL1       -0.2240
     29 C         141.5046  133.7004  154.5808 C.ar    1  UNL1        0.1988
     30 N         142.2740  133.4232  155.8382 N.ar    1  UNL1       -0.2240
     31 C         142.5385  134.5305  156.8150 C.ar    1  UNL1        0.0845
     32 C         143.3777  134.3966  158.2629 C.ar    1  UNL1        0.0192
     33 C         143.6814  135.4507  159.2860 C.ar    1  UNL1        0.0016
     34 C         143.2094  136.8588  159.0751 C.ar    1  UNL1        0.0017
     35 C         142.7092  136.1464  157.8534 C.ar    1  UNL1        0.0030
     36 C         142.0338  135.9149  156.5343 C.ar    1  UNL1        0.0354
     37 H         143.0244  142.6511  161.3645 H       1  UNL1        0.1739
     38 H         138.5321  142.7928  153.3531 H       1  UNL1        0.1501
     39 C         145.5732  141.7356  163.7464 C.3     1  UNL1        0.2543
     40 O         144.2348  141.6292  163.0777 O.3     1  UNL1       -0.4553
@<TRIPOS>BOND
     1    39    40    1
     2    40     1    1
     3     1     2   ar
     4     2     3   ar
     5     3     4   ar
     6     4     5   ar
     7     5     6   ar
     8     6     7    1
     9     7     8    1
    10     8     9    2
    11     8    10    2
    12     8    11    1
    13    11    12   ar
    14    12    13   ar
    15    13    14   ar
    16    14    15   ar
    17    15    16   ar
    18    15    17    1
    19    17    18    2
    20    17    19   am
    21    19    20    1
    22    20    21    1
    23    21    22   ar
    24    22    23   ar
    25    23    24   ar
    26    24    25   ar
    27    25    26   ar
    28    25    27    1
    29    27    28   ar
    30    28    29   ar
    31    29    30   ar
    32    30    31   ar
    33    31    32   ar
    34    32    33   ar
    35    33    34   ar
    36    34    35   ar
    37    35    36   ar
    38     6     1   ar
    39    16    11   ar
    40    26    21   ar
    41    36    27   ar
    42    34     4    1
    43    36    31   ar
    44     7    37    1
    45    19    38    1
@<TRIPOS>MOLECULE
*****
 40 45 0 0 0
SMALL
GASTEIGER

@<TRIPOS>ATOM
      1 C         142.4627  137.8922  161.9468 C.ar    1  UNL1        0.2400
      2 N         142.9914  136.8297  161.0295 N.ar    1  UNL1       -0.2090
      3 C         143.1138  137.1010  159.5594 C.ar    1  UNL1        0.1021
      4 C         142.7967  138.3264  158.6790 C.ar    1  UNL1        0.0207
      5 C         142.4971  138.5446  160.1325 C.ar    1  UNL1        0.0221
      6 C         142.0563  139.2261  161.3939 C.ar    1  UNL1        0.1178
      7 N         141.5276  140.2887  162.3112 N.pl3   1  UNL1       -0.2104
      8 S         140.9747  141.6041  162.7737 S.O2    1  UNL1        0.0737
      9 O         140.5758  142.1378  164.1176 O.2     1  UNL1       -0.1499
     10 O         141.1691  140.6172  163.8864 O.2     1  UNL1       -0.1499
     11 C         140.4643  143.0138  162.7256 C.ar    1  UNL1        0.1253
     12 C         140.0236  143.6953  163.9871 C.ar    1  UNL1        0.0202
     13 C         139.5132  145.1050  163.9389 C.ar    1  UNL1        0.0015
     14 C         139.4436  145.8331  162.6294 C.ar    1  UNL1        0.0046
     15 C         139.8843  145.1516  161.3679 C.ar    1  UNL1        0.0547
     16 C         140.3947  143.7420  161.4161 C.ar    1  UNL1        0.0247
     17 C         139.7351  146.1730  159.8722 C.2     1  UNL1        0.2461
     18 O         139.1822  147.4885  160.3346 O.2     1  UNL1       -0.2701
     19 N         139.8575  146.4443  158.4020 N.am    1  UNL1       -0.2969
     20 C         140.1571  146.2261  156.9485 C.3     1  UNL1        0.1166
     21 C         140.5979  145.5445  155.6871 C.ar    1  UNL1       -0.0025
     22 C         140.6587  145.9859  154.2111 C.ar    1  UNL1       -0.0026
     23 C         141.0995  145.3043  152.9496 C.ar    1  UNL1       -0.0002
     24 C         141.6099  143.8947  152.9978 C.ar    1  UNL1        0.0015
     25 C         141.6795  143.1665  154.3073 C.ar    1  UNL1        0.0175
     26 C         141.1266  144.4820  154.7698 C.ar    1  UNL1       -0.0011
     27 C         142.1899  141.7569  154.3554 C.ar    1  UNL1        0.0844
     28 N         142.3123  142.0281  152.8852 N.ar    1  UNL1       -0.2240
     29 C         142.8410  140.9655  151.9680 C.ar    1  UNL1        0.1988
     30 N         143.2474  139.6317  152.5208 N.ar    1  UNL1       -0.2240
     31 C         143.1249  139.3604  153.9910 C.ar    1  UNL1        0.0845
     32 C         143.5314  137.9317  154.7734 C.ar    1  UNL1        0.0192
     33 C         143.4383  137.5864  156.2301 C.ar    1  UNL1        0.0016
     34 C         142.9191  138.5977  157.2089 C.ar    1  UNL1        0.0017
     35 C         142.8495  139.3258  155.8993 C.ar    1  UNL1        0.0030
     36 C         142.5962  140.4230  154.9083 C.ar    1  UNL1        0.0354
     37 H         141.5733  139.8107  163.1707 H       1  UNL1        0.1739
     38 H         139.5225  147.3695  158.3704 H       1  UNL1        0.1501
     39 C         141.0747  137.0346  163.9687 C.3     1  UNL1        0.2543
     40 O         142.3403  137.6209  163.4170 O.3     1  UNL1       -0.4553
@<TRIPOS>BOND
     1    39    40    1
     2    40     1    1
     3     1     2   ar
     4     2     3   ar
     5     3     4   ar
     6     4     5   ar
     7     5     6   ar
     8     6     7    1
     9     7     8    1
    10     8     9    2
    11     8    10    2
    12     8    11    1
    13    11    12   ar
    14    12    13   ar
    15    13    14   ar
    16    14    15   ar
    17    15    16   ar
    18    15    17    1
    19    17    18    2
    20    17    19   am
    21    19    20    1
    22    20    21    1
    23    21    22   ar
    24    22    23   ar
    25    23    24   ar
    26    24    25   ar
    27    25    26   ar
    28    25    27    1
    29    27    28   ar
    30    28    29   ar
    31    29    30   ar
    32    30    31   ar
    33    31    32   ar
    34    32    33   ar
    35    33    34   ar
    36    34    35   ar
    37    35    36   ar
    38     6     1   ar
    39    16    11   ar
    40    26    21   ar
    41    36    27   ar
    42    34     4    1
    43    36    31   ar
    44     7    37    1
    45    19    38    1
