@<TRIPOS>MOLECULE
*****
 32 34 0 0 0
SMALL
GASTEIGER

@<TRIPOS>ATOM
      1 C         139.4848  141.7501  161.2470 C.ar    1  UNL1       -0.0064
      2 C         140.0370  142.7188  160.2436 C.ar    1  UNL1       -0.0032
      3 C         141.4958  143.0671  160.2616 C.ar    1  UNL1       -0.0032
      4 C         142.4025  142.4467  161.2829 C.ar    1  UNL1       -0.0064
      5 C         141.8504  141.4780  162.2862 C.ar    1  UNL1       -0.0032
      6 C         140.3915  141.1297  162.2682 C.ar    1  UNL1       -0.0032
      7 C         138.0259  141.4017  161.2290 C.3     1  UNL1        0.0956
      8 N         137.5135  140.2746  162.0758 N.3     1  UNL1       -0.2937
      9 H         138.0272  140.3106  162.9562 H       1  UNL1        0.1236
     10 C         137.6042  138.8621  161.5790 C.3     1  UNL1        0.0702
     11 C         138.7464  137.9887  162.0062 C.3     1  UNL1        0.0344
     12 C         138.8897  137.5921  163.4457 C.3     1  UNL1        0.0735
     13 C         138.2128  139.5643  165.6026 C.3     1  UNL1        0.0173
     14 C         139.6418  139.1769  165.3621 C.3     1  UNL1        0.0575
     15 C         140.7324  139.7756  166.2000 C.3     1  UNL1        0.0160
     16 C         142.1614  139.3882  165.9595 C.3     1  UNL1        0.0028
     17 C         142.4999  138.4022  164.8811 C.3     1  UNL1        0.0174
     18 C         141.4093  137.8035  164.0432 C.3     1  UNL1        0.0720
     19 N         139.9803  138.1908  164.2837 N.3     1  UNL1       -0.2739
     20 C         143.8615  142.7951  161.3008 C.3     1  UNL1        0.0956
     21 N         144.3379  143.9896  162.0729 N.3     1  UNL1       -0.2937
     22 H         143.8008  144.7897  161.7385 H       1  UNL1        0.1236
     23 C         144.2449  144.0008  163.5700 C.3     1  UNL1        0.0702
     24 C         143.2685  144.9112  164.2540 C.3     1  UNL1        0.0344
     25 C         142.0451  145.3824  163.5252 C.3     1  UNL1        0.0735
     26 N         140.7139  144.7515  163.8081 N.3     1  UNL1       -0.2739
     27 C         140.5774  143.7556  164.9215 C.3     1  UNL1        0.0720
     28 C         139.2463  143.1247  165.2045 C.3     1  UNL1        0.0174
     29 C         138.0517  143.4898  164.3741 C.3     1  UNL1        0.0028
     30 C         138.1882  144.4857  163.2607 C.3     1  UNL1        0.0160
     31 C         139.5193  145.1165  162.9777 C.3     1  UNL1        0.0575
     32 C         139.6557  146.1124  161.8644 C.3     1  UNL1        0.0173
@<TRIPOS>BOND
     1    14    13    1
     2    14    15    1
     3    15    16    1
     4    16    17    1
     5    17    18    1
     6    18    19    1
     7    19    12    1
     8    12    11    1
     9    11    10    1
    10    10     8    1
    11     8     7    1
    12     7     1    1
    13     1     2   ar
    14     2     3   ar
    15     3     4   ar
    16     4    20    1
    17    20    21    1
    18    21    23    1
    19    23    24    1
    20    24    25    1
    21    25    26    1
    22    26    27    1
    23    27    28    1
    24    28    29    1
    25    29    30    1
    26    30    31    1
    27    31    32    1
    28     4     5   ar
    29     5     6   ar
    30    19    14    1
    31     6     1   ar
    32    31    26    1
    33     8     9    1
    34    21    22    1
@<TRIPOS>MOLECULE
*****
 32 34 0 0 0
SMALL
GASTEIGER

@<TRIPOS>ATOM
      1 C         137.9501  139.9726  161.7617 C.ar    1  UNL1       -0.0064
      2 C         138.2005  141.0565  160.7556 C.ar    1  UNL1       -0.0032
      3 C         138.1640  142.4952  161.1785 C.ar    1  UNL1       -0.0032
      4 C         137.8771  142.8499  162.6074 C.ar    1  UNL1       -0.0064
      5 C         137.6267  141.7659  163.6135 C.ar    1  UNL1       -0.0032
      6 C         137.6632  140.3273  163.1907 C.ar    1  UNL1       -0.0032
      7 C         137.9867  138.5338  161.3389 C.3     1  UNL1        0.0956
      8 N         139.0749  137.6319  161.8411 N.3     1  UNL1       -0.2937
      9 H         138.9607  137.5677  162.8526 H       1  UNL1        0.1236
     10 C         140.5123  137.9785  161.5887 C.3     1  UNL1        0.0702
     11 C         141.5177  137.8608  162.6957 C.3     1  UNL1        0.0344
     12 C         141.1364  137.2025  163.9884 C.3     1  UNL1        0.0735
     13 C         142.4779  139.3417  165.6083 C.3     1  UNL1        0.0173
     14 C         141.0259  139.0351  165.8267 C.3     1  UNL1        0.0575
     15 C         140.2447  139.7980  166.8551 C.3     1  UNL1        0.0160
     16 C         138.7927  139.4914  167.0735 C.3     1  UNL1        0.0028
     17 C         138.1219  138.4218  166.2636 C.3     1  UNL1        0.0174
     18 C         138.9032  137.6589  165.2352 C.3     1  UNL1        0.0720
     19 N         140.3552  137.9655  165.0168 N.3     1  UNL1       -0.2739
     20 C         137.8406  144.2887  163.0303 C.3     1  UNL1        0.0956
     21 N         139.0109  144.8883  163.7519 N.3     1  UNL1       -0.2937
     22 H         138.9593  145.8970  163.6096 H       1  UNL1        0.1236
     23 C         139.1766  144.6668  165.2262 C.3     1  UNL1        0.0702
     24 C         139.8673  143.4328  165.7263 C.3     1  UNL1        0.0344
     25 C         141.2876  143.1561  165.3314 C.3     1  UNL1        0.0735
     26 N         141.6409  142.9668  163.8858 N.3     1  UNL1       -0.2739
     27 C         141.2912  141.6848  163.1900 C.3     1  UNL1        0.0720
     28 C         141.6444  141.4955  161.7445 C.3     1  UNL1        0.0174
     29 C         142.3474  142.5882  160.9950 C.3     1  UNL1        0.0028
     30 C         142.6971  143.8702  161.6908 C.3     1  UNL1        0.0160
     31 C         142.3438  144.0595  163.1362 C.3     1  UNL1        0.0575
     32 C         142.6935  145.3415  163.8321 C.3     1  UNL1        0.0173
@<TRIPOS>BOND
     1    14    13    1
     2    14    15    1
     3    15    16    1
     4    16    17    1
     5    17    18    1
     6    18    19    1
     7    19    12    1
     8    12    11    1
     9    11    10    1
    10    10     8    1
    11     8     7    1
    12     7     1    1
    13     1     2   ar
    14     2     3   ar
    15     3     4   ar
    16     4    20    1
    17    20    21    1
    18    21    23    1
    19    23    24    1
    20    24    25    1
    21    25    26    1
    22    26    27    1
    23    27    28    1
    24    28    29    1
    25    29    30    1
    26    30    31    1
    27    31    32    1
    28     4     5   ar
    29     5     6   ar
    30    19    14    1
    31     6     1   ar
    32    31    26    1
    33     8     9    1
    34    21    22    1
@<TRIPOS>MOLECULE
*****
 32 34 0 0 0
SMALL
GASTEIGER

@<TRIPOS>ATOM
      1 C         138.3747  138.8185  162.8495 C.ar    1  UNL1       -0.0064
      2 C         138.0486  140.1318  163.4967 C.ar    1  UNL1       -0.0032
      3 C         138.1461  140.2785  164.9863 C.ar    1  UNL1       -0.0032
      4 C         138.5697  139.1119  165.8287 C.ar    1  UNL1       -0.0064
      5 C         138.8957  137.7986  165.1815 C.ar    1  UNL1       -0.0032
      6 C         138.7982  137.6519  163.6919 C.ar    1  UNL1       -0.0032
      7 C         138.2772  138.6717  161.3599 C.3     1  UNL1        0.0956
      8 N         137.5877  139.7262  160.5459 N.3     1  UNL1       -0.2937
      9 H         137.0175  139.2388  159.8548 H       1  UNL1        0.1236
     10 C         138.3964  140.7452  159.7991 C.3     1  UNL1        0.0702
     11 C         139.5828  141.3880  160.4543 C.3     1  UNL1        0.0344
     12 C         139.6428  142.8798  160.5991 C.3     1  UNL1        0.0735
     13 C         141.9038  144.2201  162.0454 C.3     1  UNL1        0.0173
     14 C         140.5365  144.1836  162.6610 C.3     1  UNL1        0.0575
     15 C         140.2996  144.8173  163.9998 C.3     1  UNL1        0.0160
     16 C         138.9323  144.7809  164.6155 C.3     1  UNL1        0.0028
     17 C         137.8018  144.1108  163.8924 C.3     1  UNL1        0.0174
     18 C         138.0386  143.4771  162.5536 C.3     1  UNL1        0.0720
     19 N         139.4060  143.5135  161.9380 N.3     1  UNL1       -0.2739
     20 C         138.6672  139.2586  167.3184 C.3     1  UNL1        0.0956
     21 N         139.5453  140.3202  167.9115 N.3     1  UNL1       -0.2937
     22 H         138.9379  141.1026  168.1551 H       1  UNL1        0.1236
     23 C         140.3707  140.0181  169.1271 C.3     1  UNL1        0.0702
     24 C         141.8111  139.6272  168.9773 C.3     1  UNL1        0.0344
     25 C         142.6650  140.2934  167.9396 C.3     1  UNL1        0.0735
     26 N         142.4374  140.0076  166.4847 N.3     1  UNL1       -0.2739
     27 C         142.6663  138.6262  165.9470 C.3     1  UNL1        0.0720
     28 C         142.4387  138.3403  164.4922 C.3     1  UNL1        0.0174
     29 C         141.9822  139.4360  163.5751 C.3     1  UNL1        0.0028
     30 C         141.7533  140.8175  164.1128 C.3     1  UNL1        0.0160
     31 C         141.9809  141.1033  165.5676 C.3     1  UNL1        0.0575
     32 C         141.7519  142.4847  166.1053 C.3     1  UNL1        0.0173
@<TRIPOS>BOND
     1    14    13    1
     2    14    15    1
     3    15    16    1
     4    16    17    1
     5    17    18    1
     6    18    19    1
     7    19    12    1
     8    12    11    1
     9    11    10    1
    10    10     8    1
    11     8     7    1
    12     7     1    1
    13     1     2   ar
    14     2     3   ar
    15     3     4   ar
    16     4    20    1
    17    20    21    1
    18    21    23    1
    19    23    24    1
    20    24    25    1
    21    25    26    1
    22    26    27    1
    23    27    28    1
    24    28    29    1
    25    29    30    1
    26    30    31    1
    27    31    32    1
    28     4     5   ar
    29     5     6   ar
    30    19    14    1
    31     6     1   ar
    32    31    26    1
    33     8     9    1
    34    21    22    1
@<TRIPOS>MOLECULE
*****
 32 34 0 0 0
SMALL
GASTEIGER

@<TRIPOS>ATOM
      1 C         143.5139  143.5852  162.3903 C.ar    1  UNL1       -0.0064
      2 C         142.4220  143.0312  161.5239 C.ar    1  UNL1       -0.0032
      3 C         141.0358  143.5977  161.6102 C.ar    1  UNL1       -0.0032
      4 C         140.7416  144.7183  162.5630 C.ar    1  UNL1       -0.0064
      5 C         141.8335  145.2723  163.4294 C.ar    1  UNL1       -0.0032
      6 C         143.2196  144.7058  163.3431 C.ar    1  UNL1       -0.0032
      7 C         144.9001  143.0186  162.3040 C.3     1  UNL1        0.0956
      8 N         145.0981  141.5382  162.1661 N.3     1  UNL1       -0.2937
      9 H         144.3385  141.1930  161.5793 H       1  UNL1        0.1236
     10 C         145.1307  140.6688  163.3880 C.3     1  UNL1        0.0702
     11 C         143.9359  139.8365  163.7484 C.3     1  UNL1        0.0344
     12 C         143.5279  139.6925  165.1846 C.3     1  UNL1        0.0735
     13 C         142.6397  139.3264  168.0267 C.3     1  UNL1        0.0173
     14 C         141.9576  140.3361  167.1519 C.3     1  UNL1        0.0575
     15 C         140.8315  141.1628  167.6981 C.3     1  UNL1        0.0160
     16 C         140.1495  142.1726  166.8233 C.3     1  UNL1        0.0028
     17 C         140.5935  142.3556  165.4024 C.3     1  UNL1        0.0174
     18 C         141.7197  141.5289  164.8561 C.3     1  UNL1        0.0720
     19 N         142.4017  140.5192  165.7309 N.3     1  UNL1       -0.2739
     20 C         139.3553  145.2849  162.6492 C.3     1  UNL1        0.0956
     21 N         138.1744  144.4377  162.2781 N.3     1  UNL1       -0.2937
     22 H         138.3888  144.0128  161.3759 H       1  UNL1        0.1236
     23 C         137.7326  143.3279  163.1854 C.3     1  UNL1        0.0702
     24 C         137.7587  141.9083  162.7016 C.3     1  UNL1        0.0344
     25 C         137.7013  140.7790  163.6872 C.3     1  UNL1        0.0735
     26 N         138.7642  139.7206  163.6777 N.3     1  UNL1       -0.2739
     27 C         139.6013  139.5093  162.4511 C.3     1  UNL1        0.0720
     28 C         140.6642  138.4509  162.4416 C.3     1  UNL1        0.0174
     29 C         140.8899  137.6038  163.6587 C.3     1  UNL1        0.0028
     30 C         140.0528  137.8151  164.8853 C.3     1  UNL1        0.0160
     31 C         138.9899  138.8735  164.8948 C.3     1  UNL1        0.0575
     32 C         138.1528  139.0847  166.1214 C.3     1  UNL1        0.0173
@<TRIPOS>BOND
     1    14    13    1
     2    14    15    1
     3    15    16    1
     4    16    17    1
     5    17    18    1
     6    18    19    1
     7    19    12    1
     8    12    11    1
     9    11    10    1
    10    10     8    1
    11     8     7    1
    12     7     1    1
    13     1     2   ar
    14     2     3   ar
    15     3     4   ar
    16     4    20    1
    17    20    21    1
    18    21    23    1
    19    23    24    1
    20    24    25    1
    21    25    26    1
    22    26    27    1
    23    27    28    1
    24    28    29    1
    25    29    30    1
    26    30    31    1
    27    31    32    1
    28     4     5   ar
    29     5     6   ar
    30    19    14    1
    31     6     1   ar
    32    31    26    1
    33     8     9    1
    34    21    22    1
@<TRIPOS>MOLECULE
*****
 32 34 0 0 0
SMALL
GASTEIGER

@<TRIPOS>ATOM
      1 C         142.9336  141.2666  160.8356 C.ar    1  UNL1       -0.0064
      2 C         141.5261  140.9537  161.2491 C.ar    1  UNL1       -0.0032
      3 C         140.5362  142.0643  161.4403 C.ar    1  UNL1       -0.0032
      4 C         140.9538  143.4877  161.2180 C.ar    1  UNL1       -0.0064
      5 C         142.3613  143.8006  160.8045 C.ar    1  UNL1       -0.0032
      6 C         143.3512  142.6900  160.6133 C.ar    1  UNL1       -0.0032
      7 C         143.9237  140.1560  160.6443 C.3     1  UNL1        0.0956
      8 N         144.3352  139.3089  161.8117 N.3     1  UNL1       -0.2937
      9 H         145.1159  138.7328  161.4968 H       1  UNL1        0.1236
     10 C         143.3446  138.3826  162.4525 C.3     1  UNL1        0.0702
     11 C         143.0082  138.5337  163.9065 C.3     1  UNL1        0.0344
     12 C         143.7147  139.5640  164.7367 C.3     1  UNL1        0.0735
     13 C         145.7092  141.6510  163.9201 C.3     1  UNL1        0.0173
     14 C         144.3000  142.0475  164.2469 C.3     1  UNL1        0.0575
     15 C         143.8880  143.4875  164.1655 C.3     1  UNL1        0.0160
     16 C         142.4788  143.8840  164.4924 C.3     1  UNL1        0.0028
     17 C         141.4815  142.8406  164.9007 C.3     1  UNL1        0.0174
     18 C         141.8935  141.4006  164.9821 C.3     1  UNL1        0.0720
     19 N         143.3028  141.0041  164.6552 N.3     1  UNL1       -0.2739
     20 C         139.9637  144.5983  161.4093 C.3     1  UNL1        0.0956
     21 N         139.3022  144.7922  162.7415 N.3     1  UNL1       -0.2937
     22 H         139.2122  145.7985  162.8818 H       1  UNL1        0.1236
     23 C         137.9505  144.1960  163.0015 C.3     1  UNL1        0.0702
     24 C         137.8245  142.9636  163.8472 C.3     1  UNL1        0.0344
     25 C         137.3175  141.6879  163.2427 C.3     1  UNL1        0.0735
     26 N         137.9281  140.3760  163.6379 N.3     1  UNL1       -0.2739
     27 C         138.3144  140.1285  165.0661 C.3     1  UNL1        0.0720
     28 C         138.9250  138.8167  165.4613 C.3     1  UNL1        0.0174
     29 C         139.1494  137.7524  164.4284 C.3     1  UNL1        0.0028
     30 C         138.7632  138.0000  163.0003 C.3     1  UNL1        0.0160
     31 C         138.1525  139.3117  162.6050 C.3     1  UNL1        0.0575
     32 C         137.7663  139.5593  161.1769 C.3     1  UNL1        0.0173
@<TRIPOS>BOND
     1    14    13    1
     2    14    15    1
     3    15    16    1
     4    16    17    1
     5    17    18    1
     6    18    19    1
     7    19    12    1
     8    12    11    1
     9    11    10    1
    10    10     8    1
    11     8     7    1
    12     7     1    1
    13     1     2   ar
    14     2     3   ar
    15     3     4   ar
    16     4    20    1
    17    20    21    1
    18    21    23    1
    19    23    24    1
    20    24    25    1
    21    25    26    1
    22    26    27    1
    23    27    28    1
    24    28    29    1
    25    29    30    1
    26    30    31    1
    27    31    32    1
    28     4     5   ar
    29     5     6   ar
    30    19    14    1
    31     6     1   ar
    32    31    26    1
    33     8     9    1
    34    21    22    1
@<TRIPOS>MOLECULE
*****
 32 34 0 0 0
SMALL
GASTEIGER

@<TRIPOS>ATOM
      1 C         144.0862  142.7701  162.9011 C.ar    1  UNL1       -0.0064
      2 C         144.7787  141.6623  163.6381 C.ar    1  UNL1       -0.0032
      3 C         144.8305  140.2852  163.0459 C.ar    1  UNL1       -0.0032
      4 C         144.1898  140.0158  161.7166 C.ar    1  UNL1       -0.0064
      5 C         143.4973  141.1236  160.9796 C.ar    1  UNL1       -0.0032
      6 C         143.4455  142.5007  161.5718 C.ar    1  UNL1       -0.0032
      7 C         144.0344  144.1473  163.4933 C.3     1  UNL1        0.0956
      8 N         143.1751  145.2029  162.8631 N.3     1  UNL1       -0.2937
      9 H         143.5840  146.1033  163.1128 H       1  UNL1        0.1236
     10 C         141.7156  145.2817  163.2001 C.3     1  UNL1        0.0702
     11 C         140.7161  145.6139  162.1321 C.3     1  UNL1        0.0344
     12 C         139.2482  145.4848  162.4124 C.3     1  UNL1        0.0735
     13 C         138.6371  144.8330  165.2763 C.3     1  UNL1        0.0173
     14 C         138.3620  143.8229  164.2020 C.3     1  UNL1        0.0575
     15 C         137.7814  142.4869  164.5597 C.3     1  UNL1        0.0160
     16 C         137.5063  141.4768  163.4855 C.3     1  UNL1        0.0028
     17 C         137.8118  141.8027  162.0536 C.3     1  UNL1        0.0174
     18 C         138.3924  143.1386  161.6959 C.3     1  UNL1        0.0720
     19 N         138.6675  144.1487  162.7701 N.3     1  UNL1       -0.2739
     20 C         144.2416  138.6386  161.1244 C.3     1  UNL1        0.0956
     21 N         143.3022  137.5762  161.6131 N.3     1  UNL1       -0.2937
     22 H         143.5435  137.3954  162.5875 H       1  UNL1        0.1236
     23 C         141.8207  137.8072  161.5694 C.3     1  UNL1        0.0702
     24 C         141.0334  137.8689  162.8447 C.3     1  UNL1        0.0344
     25 C         140.5769  139.1934  163.3809 C.3     1  UNL1        0.0735
     26 N         139.9145  139.2705  164.7245 N.3     1  UNL1       -0.2739
     27 C         138.7765  138.3503  165.0536 C.3     1  UNL1        0.0720
     28 C         138.1140  138.4275  166.3971 C.3     1  UNL1        0.0174
     29 C         138.5895  139.4249  167.4115 C.3     1  UNL1        0.0028
     30 C         139.7274  140.3451  167.0824 C.3     1  UNL1        0.0160
     31 C         140.3899  140.2679  165.7389 C.3     1  UNL1        0.0575
     32 C         141.5278  141.1882  165.4098 C.3     1  UNL1        0.0173
@<TRIPOS>BOND
     1    14    13    1
     2    14    15    1
     3    15    16    1
     4    16    17    1
     5    17    18    1
     6    18    19    1
     7    19    12    1
     8    12    11    1
     9    11    10    1
    10    10     8    1
    11     8     7    1
    12     7     1    1
    13     1     2   ar
    14     2     3   ar
    15     3     4   ar
    16     4    20    1
    17    20    21    1
    18    21    23    1
    19    23    24    1
    20    24    25    1
    21    25    26    1
    22    26    27    1
    23    27    28    1
    24    28    29    1
    25    29    30    1
    26    30    31    1
    27    31    32    1
    28     4     5   ar
    29     5     6   ar
    30    19    14    1
    31     6     1   ar
    32    31    26    1
    33     8     9    1
    34    21    22    1
@<TRIPOS>MOLECULE
*****
 32 34 0 0 0
SMALL
GASTEIGER

@<TRIPOS>ATOM
      1 C         139.3854  140.5785  164.6425 C.ar    1  UNL1       -0.0064
      2 C         140.4006  141.0106  163.6264 C.ar    1  UNL1       -0.0032
      3 C         141.6447  141.7242  164.0657 C.ar    1  UNL1       -0.0032
      4 C         141.8736  142.0055  165.5212 C.ar    1  UNL1       -0.0064
      5 C         140.8584  141.5734  166.5374 C.ar    1  UNL1       -0.0032
      6 C         139.6143  140.8599  166.0980 C.ar    1  UNL1       -0.0032
      7 C         138.1413  139.8649  164.2032 C.3     1  UNL1        0.0956
      8 N         138.0260  139.3548  162.7974 N.3     1  UNL1       -0.2937
      9 H         137.0341  139.1930  162.6232 H       1  UNL1        0.1236
     10 C         138.7466  138.1032  162.3923 C.3     1  UNL1        0.0702
     11 C         140.1012  138.1908  161.7538 C.3     1  UNL1        0.0344
     12 C         141.2354  137.3653  162.2848 C.3     1  UNL1        0.0735
     13 C         143.7593  138.7268  161.4039 C.3     1  UNL1        0.0173
     14 C         143.4328  138.6245  162.8643 C.3     1  UNL1        0.0575
     15 C         144.3682  139.2030  163.8843 C.3     1  UNL1        0.0160
     16 C         144.0416  139.1006  165.3448 C.3     1  UNL1        0.0028
     17 C         142.7797  138.4199  165.7852 C.3     1  UNL1        0.0174
     18 C         141.8443  137.8415  164.7652 C.3     1  UNL1        0.0720
     19 N         142.1708  137.9438  163.3048 N.3     1  UNL1       -0.2739
     20 C         143.1178  142.7191  165.9605 C.3     1  UNL1        0.0956
     21 N         144.0907  143.2284  164.9388 N.3     1  UNL1       -0.2937
     22 H         144.0688  142.5720  164.1584 H       1  UNL1        0.1236
     23 C         143.9172  144.5998  164.3561 C.3     1  UNL1        0.0702
     24 C         142.9257  144.8262  163.2535 C.3     1  UNL1        0.0344
     25 C         141.6725  145.6060  163.5204 C.3     1  UNL1        0.0735
     26 N         140.3386  144.9215  163.4718 N.3     1  UNL1       -0.2739
     27 C         139.5406  144.7438  164.7294 C.3     1  UNL1        0.0720
     28 C         138.2067  144.0593  164.6809 C.3     1  UNL1        0.0174
     29 C         137.6709  143.5526  163.3747 C.3     1  UNL1        0.0028
     30 C         138.4689  143.7304  162.1171 C.3     1  UNL1        0.0160
     31 C         139.8028  144.4148  162.1657 C.3     1  UNL1        0.0575
     32 C         140.6008  144.5925  160.9080 C.3     1  UNL1        0.0173
@<TRIPOS>BOND
     1    14    13    1
     2    14    15    1
     3    15    16    1
     4    16    17    1
     5    17    18    1
     6    18    19    1
     7    19    12    1
     8    12    11    1
     9    11    10    1
    10    10     8    1
    11     8     7    1
    12     7     1    1
    13     1     2   ar
    14     2     3   ar
    15     3     4   ar
    16     4    20    1
    17    20    21    1
    18    21    23    1
    19    23    24    1
    20    24    25    1
    21    25    26    1
    22    26    27    1
    23    27    28    1
    24    28    29    1
    25    29    30    1
    26    30    31    1
    27    31    32    1
    28     4     5   ar
    29     5     6   ar
    30    19    14    1
    31     6     1   ar
    32    31    26    1
    33     8     9    1
    34    21    22    1
@<TRIPOS>MOLECULE
*****
 32 34 0 0 0
SMALL
GASTEIGER

@<TRIPOS>ATOM
      1 C         138.7121  143.5247  162.6571 C.ar    1  UNL1       -0.0064
      2 C         137.7561  142.7612  163.5248 C.ar    1  UNL1       -0.0032
      3 C         137.3548  141.3652  163.1508 C.ar    1  UNL1       -0.0032
      4 C         137.9097  140.7326  161.9090 C.ar    1  UNL1       -0.0064
      5 C         138.8657  141.4961  161.0413 C.ar    1  UNL1       -0.0032
      6 C         139.2670  142.8922  161.4153 C.ar    1  UNL1       -0.0032
      7 C         139.1134  144.9209  163.0312 C.3     1  UNL1        0.0956
      8 N         140.1821  145.1439  164.0598 N.3     1  UNL1       -0.2937
      9 H         139.8624  145.9075  164.6557 H       1  UNL1        0.1236
     10 C         141.5777  145.4858  163.6294 C.3     1  UNL1        0.0702
     11 C         142.2687  144.6504  162.5926 C.3     1  UNL1        0.0344
     12 C         142.8581  143.3236  162.9694 C.3     1  UNL1        0.0735
     13 C         144.5644  143.7435  165.4010 C.3     1  UNL1        0.0173
     14 C         143.3352  142.8880  165.4859 C.3     1  UNL1        0.0575
     15 C         142.9592  142.2425  166.7866 C.3     1  UNL1        0.0160
     16 C         141.7299  141.3870  166.8716 C.3     1  UNL1        0.0028
     17 C         140.8768  141.1770  165.6559 C.3     1  UNL1        0.0174
     18 C         141.2529  141.8226  164.3552 C.3     1  UNL1        0.0720
     19 N         142.4821  142.6780  164.2702 N.3     1  UNL1       -0.2739
     20 C         137.5084  139.3365  161.5349 C.3     1  UNL1        0.0956
     21 N         138.5566  138.2811  161.3417 N.3     1  UNL1       -0.2937
     22 H         139.2310  138.6548  160.6739 H       1  UNL1        0.1236
     23 C         139.3429  137.7809  162.5171 C.3     1  UNL1        0.0702
     24 C         140.8280  137.6028  162.4051 C.3     1  UNL1        0.0344
     25 C         141.6993  137.7936  163.6110 C.3     1  UNL1        0.0735
     26 N         142.8930  138.6992  163.5383 N.3     1  UNL1       -0.2739
     27 C         143.2389  139.3818  162.2482 C.3     1  UNL1        0.0720
     28 C         144.4324  140.2874  162.1754 C.3     1  UNL1        0.0174
     29 C         145.2800  140.5104  163.3927 C.3     1  UNL1        0.0028
     30 C         144.9340  139.8278  164.6828 C.3     1  UNL1        0.0160
     31 C         143.7405  138.9222  164.7556 C.3     1  UNL1        0.0575
     32 C         143.3946  138.2395  166.0456 C.3     1  UNL1        0.0173
@<TRIPOS>BOND
     1    14    13    1
     2    14    15    1
     3    15    16    1
     4    16    17    1
     5    17    18    1
     6    18    19    1
     7    19    12    1
     8    12    11    1
     9    11    10    1
    10    10     8    1
    11     8     7    1
    12     7     1    1
    13     1     2   ar
    14     2     3   ar
    15     3     4   ar
    16     4    20    1
    17    20    21    1
    18    21    23    1
    19    23    24    1
    20    24    25    1
    21    25    26    1
    22    26    27    1
    23    27    28    1
    24    28    29    1
    25    29    30    1
    26    30    31    1
    27    31    32    1
    28     4     5   ar
    29     5     6   ar
    30    19    14    1
    31     6     1   ar
    32    31    26    1
    33     8     9    1
    34    21    22    1
@<TRIPOS>MOLECULE
*****
 32 34 0 0 0
SMALL
GASTEIGER

@<TRIPOS>ATOM
      1 C         141.5678  144.4832  162.7855 C.ar    1  UNL1       -0.0064
      2 C         142.6835  144.8646  163.7126 C.ar    1  UNL1       -0.0032
      3 C         143.9596  144.0763  163.7145 C.ar    1  UNL1       -0.0032
      4 C         144.1200  142.9066  162.7893 C.ar    1  UNL1       -0.0064
      5 C         143.0043  142.5251  161.8622 C.ar    1  UNL1       -0.0032
      6 C         141.7282  143.3134  161.8603 C.ar    1  UNL1       -0.0032
      7 C         140.2915  145.2715  162.7835 C.3     1  UNL1        0.0956
      8 N         139.3359  145.1544  163.9337 N.3     1  UNL1       -0.2937
      9 H         139.8789  144.8365  164.7365 H       1  UNL1        0.1236
     10 C         138.1451  144.2482  163.8301 C.3     1  UNL1        0.0702
     11 C         138.1977  143.0388  162.9443 C.3     1  UNL1        0.0344
     12 C         137.3180  141.8588  163.2331 C.3     1  UNL1        0.0735
     13 C         137.7488  139.6296  161.2722 C.3     1  UNL1        0.0173
     14 C         138.1399  139.4504  162.7092 C.3     1  UNL1        0.0575
     15 C         138.7463  138.1567  163.1657 C.3     1  UNL1        0.0160
     16 C         139.1374  137.9776  164.6027 C.3     1  UNL1        0.0028
     17 C         138.9220  139.0921  165.5832 C.3     1  UNL1        0.0174
     18 C         138.3155  140.3858  165.1266 C.3     1  UNL1        0.0720
     19 N         137.9245  140.5650  163.6896 N.3     1  UNL1       -0.2739
     20 C         145.3962  142.1183  162.7913 C.3     1  UNL1        0.0956
     21 N         145.3550  140.6248  162.9243 N.3     1  UNL1       -0.2937
     22 H         146.2849  140.2819  162.6831 H       1  UNL1        0.1236
     23 C         144.9898  139.9985  164.2375 C.3     1  UNL1        0.0702
     24 C         143.5740  139.5786  164.5002 C.3     1  UNL1        0.0344
     25 C         142.5843  140.5709  165.0348 C.3     1  UNL1        0.0735
     26 N         142.2090  140.5478  166.4870 N.3     1  UNL1       -0.2739
     27 C         142.7096  139.4464  167.3737 C.3     1  UNL1        0.0720
     28 C         142.3343  139.4233  168.8257 C.3     1  UNL1        0.0174
     29 C         141.4584  140.5017  169.3911 C.3     1  UNL1        0.0028
     30 C         140.9577  141.6032  168.5045 C.3     1  UNL1        0.0160
     31 C         141.3330  141.6262  167.0524 C.3     1  UNL1        0.0575
     32 C         140.8324  142.7277  166.1658 C.3     1  UNL1        0.0173
@<TRIPOS>BOND
     1    14    13    1
     2    14    15    1
     3    15    16    1
     4    16    17    1
     5    17    18    1
     6    18    19    1
     7    19    12    1
     8    12    11    1
     9    11    10    1
    10    10     8    1
    11     8     7    1
    12     7     1    1
    13     1     2   ar
    14     2     3   ar
    15     3     4   ar
    16     4    20    1
    17    20    21    1
    18    21    23    1
    19    23    24    1
    20    24    25    1
    21    25    26    1
    22    26    27    1
    23    27    28    1
    24    28    29    1
    25    29    30    1
    26    30    31    1
    27    31    32    1
    28     4     5   ar
    29     5     6   ar
    30    19    14    1
    31     6     1   ar
    32    31    26    1
    33     8     9    1
    34    21    22    1
