@<TRIPOS>MOLECULE
*****
 31 35 0 0 0
SMALL
GASTEIGER

@<TRIPOS>ATOM
      1 C         141.4951  137.6195  157.1798 C.ar    1  UNL1       -0.0207
      2 C         140.1573  138.1652  157.5828 C.ar    1  UNL1       -0.0027
      3 C         139.9333  138.6395  158.9881 C.ar    1  UNL1        0.0188
      4 C         141.0471  138.5682  159.9903 C.ar    1  UNL1        0.0812
      5 N         140.8230  139.0425  161.3956 N.ar    1  UNL1       -0.2454
      6 C         141.9368  138.9712  162.3978 C.ar    1  UNL1        0.0813
      7 C         143.2746  138.4254  161.9947 C.ar    1  UNL1        0.0191
      8 C         143.4986  137.9511  160.5895 C.ar    1  UNL1        0.0030
      9 C         142.3849  138.0225  159.5873 C.ar    1  UNL1        0.0174
     10 C         142.6089  137.5481  158.1820 C.ar    1  UNL1       -0.0027
     11 C         141.7127  139.4455  163.8031 C.ar    1  UNL1        0.0177
     12 C         140.8743  140.6627  164.0591 C.ar    1  UNL1        0.0030
     13 C         140.6503  141.1371  165.4644 C.ar    1  UNL1        0.0176
     14 C         141.2647  140.3943  166.6136 C.ar    1  UNL1        0.0641
     15 C         142.1031  139.1771  166.3576 C.ar    1  UNL1        0.0176
     16 C         142.3271  138.7027  164.9523 C.ar    1  UNL1        0.0030
     17 N         141.0406  140.8686  168.0189 N.ar    1  UNL1       -0.3034
     18 C         141.1322  139.9003  169.1609 C.ar    1  UNL1        0.0834
     19 C         140.9082  140.3747  170.5661 C.ar    1  UNL1        0.0610
     20 C         140.5926  141.8173  170.8295 C.ar    1  UNL1        0.1987
     21 O         140.3686  142.2916  172.2347 O.2     1  UNL1       -0.2865
     22 C         140.5010  142.7855  169.6875 C.ar    1  UNL1        0.0610
     23 C         140.7251  142.3112  168.2822 C.ar    1  UNL1        0.0834
     24 C         141.7192  137.1451  155.7745 C.3     1  UNL1        0.0437
     25 C         142.7783  136.1222  155.4881 C.3     1  UNL1        0.0768
     26 C         143.7790  133.9388  157.6973 C.3     1  UNL1        0.0173
     27 C         142.8945  133.6586  156.5187 C.3     1  UNL1        0.0576
     28 C         142.3147  132.3256  156.1486 C.3     1  UNL1        0.0174
     29 C         141.4963  132.5054  154.9044 C.3     1  UNL1        0.0187
     30 C         141.5704  133.9495  154.5055 C.3     1  UNL1        0.0721
     31 N         142.4345  134.6622  155.5032 N.3     1  UNL1       -0.2737
@<TRIPOS>BOND
     1    27    26    1
     2    27    28    1
     3    28    29    1
     4    29    30    1
     5    30    31    1
     6    31    25    1
     7    25    24    1
     8    24     1    1
     9     1     2   ar
    10     2     3   ar
    11     3     4   ar
    12     4     5   ar
    13     5     6   ar
    14     6    11    1
    15    11    12   ar
    16    12    13   ar
    17    13    14   ar
    18    14    17    1
    19    17    18   ar
    20    18    19   ar
    21    19    20   ar
    22    20    21    2
    23    20    22   ar
    24    22    23   ar
    25    14    15   ar
    26    15    16   ar
    27     6     7   ar
    28     7     8   ar
    29     8     9   ar
    30     9    10   ar
    31    31    27    1
    32    10     1   ar
    33     9     4   ar
    34    16    11   ar
    35    23    17   ar
@<TRIPOS>MOLECULE
*****
 31 35 0 0 0
SMALL
GASTEIGER

@<TRIPOS>ATOM
      1 C         142.3256  139.8866  167.3312 C.ar    1  UNL1       -0.0207
      2 C         141.1921  139.3771  166.4912 C.ar    1  UNL1       -0.0027
      3 C         140.9172  139.9911  165.1505 C.ar    1  UNL1        0.0188
      4 C         141.7758  141.1146  164.6499 C.ar    1  UNL1        0.0812
      5 N         141.5008  141.7286  163.3091 N.ar    1  UNL1       -0.2454
      6 C         142.3594  142.8521  162.8085 C.ar    1  UNL1        0.0813
      7 C         143.4929  143.3616  163.6486 C.ar    1  UNL1        0.0191
      8 C         143.7678  142.7476  164.9892 C.ar    1  UNL1        0.0030
      9 C         142.9092  141.6241  165.4899 C.ar    1  UNL1        0.0174
     10 C         143.1842  141.0101  166.8305 C.ar    1  UNL1       -0.0027
     11 C         142.0844  143.4661  161.4678 C.ar    1  UNL1        0.0177
     12 C         142.8611  143.0193  160.2648 C.ar    1  UNL1        0.0030
     13 C         142.5861  143.6333  158.9241 C.ar    1  UNL1        0.0176
     14 C         141.5346  144.6941  158.7864 C.ar    1  UNL1        0.0641
     15 C         140.7580  145.1409  159.9894 C.ar    1  UNL1        0.0176
     16 C         141.0329  144.5269  161.3302 C.ar    1  UNL1        0.0030
     17 N         141.2597  145.3081  157.4458 N.ar    1  UNL1       -0.3034
     18 C         142.1241  144.9604  156.2701 C.ar    1  UNL1        0.0834
     19 C         141.8491  145.5744  154.9295 C.ar    1  UNL1        0.0610
     20 C         140.7099  146.5361  154.7644 C.ar    1  UNL1        0.1987
     21 O         140.4350  147.1501  153.4238 O.2     1  UNL1       -0.2865
     22 C         139.8456  146.8838  155.9400 C.ar    1  UNL1        0.0610
     23 C         140.1205  146.2698  157.2807 C.ar    1  UNL1        0.0834
     24 C         142.6006  139.2726  168.6719 C.3     1  UNL1        0.0437
     25 C         141.8923  139.7849  169.8909 C.3     1  UNL1        0.0768
     26 C         143.8537  142.3909  169.9944 C.3     1  UNL1        0.0173
     27 C         142.3540  142.4153  170.0038 C.3     1  UNL1        0.0576
     28 C         141.4925  143.6419  170.0624 C.3     1  UNL1        0.0174
     29 C         140.0584  143.2021  170.0511 C.3     1  UNL1        0.0187
     30 C         140.0337  141.7036  169.9854 C.3     1  UNL1        0.0721
     31 N         141.4524  141.2175  169.9562 N.3     1  UNL1       -0.2737
@<TRIPOS>BOND
     1    27    26    1
     2    27    28    1
     3    28    29    1
     4    29    30    1
     5    30    31    1
     6    31    25    1
     7    25    24    1
     8    24     1    1
     9     1     2   ar
    10     2     3   ar
    11     3     4   ar
    12     4     5   ar
    13     5     6   ar
    14     6    11    1
    15    11    12   ar
    16    12    13   ar
    17    13    14   ar
    18    14    17    1
    19    17    18   ar
    20    18    19   ar
    21    19    20   ar
    22    20    21    2
    23    20    22   ar
    24    22    23   ar
    25    14    15   ar
    26    15    16   ar
    27     6     7   ar
    28     7     8   ar
    29     8     9   ar
    30     9    10   ar
    31    31    27    1
    32    10     1   ar
    33     9     4   ar
    34    16    11   ar
    35    23    17   ar
@<TRIPOS>MOLECULE
*****
 31 35 0 0 0
SMALL
GASTEIGER

@<TRIPOS>ATOM
      1 C         141.3417  137.6379  157.0658 C.ar    1  UNL1       -0.0207
      2 C         142.6122  137.5674  157.8600 C.ar    1  UNL1       -0.0027
      3 C         142.6252  138.0058  159.2944 C.ar    1  UNL1        0.0188
      4 C         141.3677  138.5146  159.9346 C.ar    1  UNL1        0.0812
      5 N         141.3808  138.9530  161.3691 N.ar    1  UNL1       -0.2454
      6 C         140.1233  139.4618  162.0093 C.ar    1  UNL1        0.0813
      7 C         138.8528  139.5322  161.2150 C.ar    1  UNL1        0.0191
      8 C         138.8397  139.0939  159.7806 C.ar    1  UNL1        0.0030
      9 C         140.0972  138.5851  159.1404 C.ar    1  UNL1        0.0174
     10 C         140.0842  138.1467  157.7060 C.ar    1  UNL1       -0.0027
     11 C         140.1363  139.9001  163.4438 C.ar    1  UNL1        0.0177
     12 C         140.8875  141.1354  163.8438 C.ar    1  UNL1        0.0030
     13 C         140.9005  141.5738  165.2782 C.ar    1  UNL1        0.0176
     14 C         140.1624  140.7769  166.3127 C.ar    1  UNL1        0.0641
     15 C         139.4113  139.5417  165.9128 C.ar    1  UNL1        0.0176
     16 C         139.3982  139.1033  164.4783 C.ar    1  UNL1        0.0030
     17 N         140.1754  141.2153  167.7471 N.ar    1  UNL1       -0.3034
     18 C         140.6899  142.5766  168.1107 C.ar    1  UNL1        0.0834
     19 C         140.7030  143.0149  169.5452 C.ar    1  UNL1        0.0610
     20 C         140.2015  142.0920  170.6160 C.ar    1  UNL1        0.1987
     21 O         140.2145  142.5304  172.0505 O.2     1  UNL1       -0.2865
     22 C         139.6870  140.7308  170.2525 C.ar    1  UNL1        0.0610
     23 C         139.6740  140.2923  168.8180 C.ar    1  UNL1        0.0834
     24 C         141.3286  137.1995  155.6312 C.3     1  UNL1        0.0437
     25 C         142.5839  136.6823  154.9936 C.3     1  UNL1        0.0768
     26 C         141.5743  134.4152  152.8746 C.3     1  UNL1        0.0173
     27 C         142.4411  134.1761  154.0752 C.3     1  UNL1        0.0576
     28 C         142.9959  132.8529  154.5126 C.3     1  UNL1        0.0174
     29 C         143.8029  133.0772  155.7570 C.3     1  UNL1        0.0187
     30 C         143.7468  134.5391  156.0886 C.3     1  UNL1        0.0721
     31 N         142.9051  135.2181  155.0492 N.3     1  UNL1       -0.2737
@<TRIPOS>BOND
     1    27    26    1
     2    27    28    1
     3    28    29    1
     4    29    30    1
     5    30    31    1
     6    31    25    1
     7    25    24    1
     8    24     1    1
     9     1     2   ar
    10     2     3   ar
    11     3     4   ar
    12     4     5   ar
    13     5     6   ar
    14     6    11    1
    15    11    12   ar
    16    12    13   ar
    17    13    14   ar
    18    14    17    1
    19    17    18   ar
    20    18    19   ar
    21    19    20   ar
    22    20    21    2
    23    20    22   ar
    24    22    23   ar
    25    14    15   ar
    26    15    16   ar
    27     6     7   ar
    28     7     8   ar
    29     8     9   ar
    30     9    10   ar
    31    31    27    1
    32    10     1   ar
    33     9     4   ar
    34    16    11   ar
    35    23    17   ar
@<TRIPOS>MOLECULE
*****
 31 35 0 0 0
SMALL
GASTEIGER

@<TRIPOS>ATOM
      1 C         139.3322  140.1990  167.8317 C.ar    1  UNL1       -0.0207
      2 C         140.0910  141.3106  167.1696 C.ar    1  UNL1       -0.0027
      3 C         140.4563  141.2087  165.7183 C.ar    1  UNL1        0.0188
      4 C         140.0627  139.9953  164.9292 C.ar    1  UNL1        0.0812
      5 N         140.4280  139.8935  163.4779 N.ar    1  UNL1       -0.2454
      6 C         140.0344  138.6800  162.6888 C.ar    1  UNL1        0.0813
      7 C         139.2755  137.5685  163.3510 C.ar    1  UNL1        0.0191
      8 C         138.9102  137.6703  164.8023 C.ar    1  UNL1        0.0030
      9 C         139.3038  138.8837  165.5914 C.ar    1  UNL1        0.0174
     10 C         138.9385  138.9856  167.0426 C.ar    1  UNL1       -0.0027
     11 C         140.3997  138.5782  161.2376 C.ar    1  UNL1        0.0177
     12 C         139.3335  138.6771  160.1870 C.ar    1  UNL1        0.0030
     13 C         139.6988  138.5752  158.7358 C.ar    1  UNL1        0.0176
     14 C         141.1302  138.3745  158.3350 C.ar    1  UNL1        0.0641
     15 C         142.1964  138.2755  159.3854 C.ar    1  UNL1        0.0176
     16 C         141.8311  138.3774  160.8367 C.ar    1  UNL1        0.0030
     17 N         141.4955  138.2726  156.8837 N.ar    1  UNL1       -0.3034
     18 C         140.5739  138.8263  155.8377 C.ar    1  UNL1        0.0834
     19 C         140.9392  138.7245  154.3865 C.ar    1  UNL1        0.0610
     20 C         142.2260  138.0689  153.9812 C.ar    1  UNL1        0.1987
     21 O         142.5913  137.9670  152.5299 O.2     1  UNL1       -0.2865
     22 C         143.1476  137.5152  155.0271 C.ar    1  UNL1        0.0610
     23 C         142.7823  137.6170  156.4785 C.ar    1  UNL1        0.0834
     24 C         138.9668  140.3009  169.2830 C.3     1  UNL1        0.0437
     25 C         140.0333  140.2049  170.3334 C.3     1  UNL1        0.0768
     26 C         142.8179  139.3524  168.8607 C.3     1  UNL1        0.0173
     27 C         142.5488  140.6570  169.5501 C.3     1  UNL1        0.0576
     28 C         143.5123  141.7989  169.6837 C.3     1  UNL1        0.0174
     29 C         142.8278  142.8965  170.4432 C.3     1  UNL1        0.0187
     30 C         141.4413  142.4330  170.7790 C.3     1  UNL1        0.0721
     31 N         141.2689  141.0489  170.2270 N.3     1  UNL1       -0.2737
@<TRIPOS>BOND
     1    27    26    1
     2    27    28    1
     3    28    29    1
     4    29    30    1
     5    30    31    1
     6    31    25    1
     7    25    24    1
     8    24     1    1
     9     1     2   ar
    10     2     3   ar
    11     3     4   ar
    12     4     5   ar
    13     5     6   ar
    14     6    11    1
    15    11    12   ar
    16    12    13   ar
    17    13    14   ar
    18    14    17    1
    19    17    18   ar
    20    18    19   ar
    21    19    20   ar
    22    20    21    2
    23    20    22   ar
    24    22    23   ar
    25    14    15   ar
    26    15    16   ar
    27     6     7   ar
    28     7     8   ar
    29     8     9   ar
    30     9    10   ar
    31    31    27    1
    32    10     1   ar
    33     9     4   ar
    34    16    11   ar
    35    23    17   ar
@<TRIPOS>MOLECULE
*****
 31 35 0 0 0
SMALL
GASTEIGER

@<TRIPOS>ATOM
      1 C         139.8873  140.2824  167.0391 C.ar    1  UNL1       -0.0207
      2 C         139.6549  141.6470  166.4612 C.ar    1  UNL1       -0.0027
      3 C         140.2724  142.0195  165.1460 C.ar    1  UNL1        0.0188
      4 C         141.1222  141.0275  164.4086 C.ar    1  UNL1        0.0812
      5 N         141.7397  141.4001  163.0933 N.ar    1  UNL1       -0.2454
      6 C         142.5896  140.4081  162.3560 C.ar    1  UNL1        0.0813
      7 C         142.8220  139.0435  162.9340 C.ar    1  UNL1        0.0191
      8 C         142.2045  138.6710  164.2492 C.ar    1  UNL1        0.0030
      9 C         141.3546  139.6630  164.9866 C.ar    1  UNL1        0.0174
     10 C         140.7372  139.2904  166.3018 C.ar    1  UNL1       -0.0027
     11 C         143.2070  140.7806  161.0407 C.ar    1  UNL1        0.0177
     12 C         143.1494  139.8234  159.8872 C.ar    1  UNL1        0.0030
     13 C         143.7668  140.1959  158.5720 C.ar    1  UNL1        0.0176
     14 C         144.4420  141.5256  158.4101 C.ar    1  UNL1        0.0641
     15 C         144.4996  142.4827  159.5636 C.ar    1  UNL1        0.0176
     16 C         143.8821  142.1103  160.8789 C.ar    1  UNL1        0.0030
     17 N         145.0594  141.8981  157.0949 N.ar    1  UNL1       -0.3034
     18 C         146.4788  142.3806  157.0425 C.ar    1  UNL1        0.0834
     19 C         147.0962  142.7531  155.7273 C.ar    1  UNL1        0.0610
     20 C         146.2944  142.6432  154.4643 C.ar    1  UNL1        0.1987
     21 O         146.9119  143.0157  153.1491 O.2     1  UNL1       -0.2865
     22 C         144.8751  142.1607  154.5167 C.ar    1  UNL1        0.0610
     23 C         144.2576  141.7882  155.8320 C.ar    1  UNL1        0.0834
     24 C         139.2698  139.9099  168.3545 C.3     1  UNL1        0.0437
     25 C         139.6624  140.6442  169.6021 C.3     1  UNL1        0.0768
     26 C         140.4164  143.8151  169.7642 C.3     1  UNL1        0.0173
     27 C         141.3893  142.6743  169.8071 C.3     1  UNL1        0.0576
     28 C         142.8795  142.7906  169.9319 C.3     1  UNL1        0.0174
     29 C         143.4540  141.4049  169.9346 C.3     1  UNL1        0.0187
     30 C         142.3188  140.4322  169.8113 C.3     1  UNL1        0.0721
     31 N         141.0427  141.2168  169.7325 N.3     1  UNL1       -0.2737
@<TRIPOS>BOND
     1    27    26    1
     2    27    28    1
     3    28    29    1
     4    29    30    1
     5    30    31    1
     6    31    25    1
     7    25    24    1
     8    24     1    1
     9     1     2   ar
    10     2     3   ar
    11     3     4   ar
    12     4     5   ar
    13     5     6   ar
    14     6    11    1
    15    11    12   ar
    16    12    13   ar
    17    13    14   ar
    18    14    17    1
    19    17    18   ar
    20    18    19   ar
    21    19    20   ar
    22    20    21    2
    23    20    22   ar
    24    22    23   ar
    25    14    15   ar
    26    15    16   ar
    27     6     7   ar
    28     7     8   ar
    29     8     9   ar
    30     9    10   ar
    31    31    27    1
    32    10     1   ar
    33     9     4   ar
    34    16    11   ar
    35    23    17   ar
@<TRIPOS>MOLECULE
*****
 31 35 0 0 0
SMALL
GASTEIGER

@<TRIPOS>ATOM
      1 C         139.6854  140.6264  166.6143 C.ar    1  UNL1       -0.0207
      2 C         140.9406  141.4186  166.3982 C.ar    1  UNL1       -0.0027
      3 C         141.1623  142.1327  165.0979 C.ar    1  UNL1        0.0188
      4 C         140.1287  142.0545  164.0136 C.ar    1  UNL1        0.0812
      5 N         140.3504  142.7686  162.7132 N.ar    1  UNL1       -0.2454
      6 C         139.3169  142.6904  161.6289 C.ar    1  UNL1        0.0813
      7 C         138.0616  141.8981  161.8450 C.ar    1  UNL1        0.0191
      8 C         137.8399  141.1841  163.1454 C.ar    1  UNL1        0.0030
      9 C         138.8735  141.2623  164.2297 C.ar    1  UNL1        0.0174
     10 C         138.6518  140.5482  165.5300 C.ar    1  UNL1       -0.0027
     11 C         139.5386  143.4045  160.3286 C.ar    1  UNL1        0.0177
     12 C         139.0387  142.8036  159.0482 C.ar    1  UNL1        0.0030
     13 C         139.2604  143.5176  157.7479 C.ar    1  UNL1        0.0176
     14 C         139.9819  144.8326  157.7278 C.ar    1  UNL1        0.0641
     15 C         140.4818  145.4334  159.0080 C.ar    1  UNL1        0.0176
     16 C         140.2601  144.7194  160.3085 C.ar    1  UNL1        0.0030
     17 N         140.2036  145.5466  156.4274 N.ar    1  UNL1       -0.3034
     18 C         141.1983  145.0136  155.4391 C.ar    1  UNL1        0.0834
     19 C         141.4199  145.7276  154.1388 C.ar    1  UNL1        0.0610
     20 C         140.6470  146.9747  153.8266 C.ar    1  UNL1        0.1987
     21 O         140.8687  147.6887  152.5263 O.2     1  UNL1       -0.2865
     22 C         139.6524  147.5077  154.8148 C.ar    1  UNL1        0.0610
     23 C         139.4307  146.7937  156.1153 C.ar    1  UNL1        0.0834
     24 C         139.4636  139.9123  167.9147 C.3     1  UNL1        0.0437
     25 C         139.6460  140.6427  169.2120 C.3     1  UNL1        0.0768
     26 C         142.4840  139.0765  169.5895 C.3     1  UNL1        0.0173
     27 C         142.2708  140.5563  169.7104 C.3     1  UNL1        0.0576
     28 C         143.3246  141.5760  170.0260 C.3     1  UNL1        0.0174
     29 C         142.6715  142.9263  170.0476 C.3     1  UNL1        0.0187
     30 C         141.2139  142.7409  169.7453 C.3     1  UNL1        0.0721
     31 N         140.9664  141.2762  169.5369 N.3     1  UNL1       -0.2737
@<TRIPOS>BOND
     1    27    26    1
     2    27    28    1
     3    28    29    1
     4    29    30    1
     5    30    31    1
     6    31    25    1
     7    25    24    1
     8    24     1    1
     9     1     2   ar
    10     2     3   ar
    11     3     4   ar
    12     4     5   ar
    13     5     6   ar
    14     6    11    1
    15    11    12   ar
    16    12    13   ar
    17    13    14   ar
    18    14    17    1
    19    17    18   ar
    20    18    19   ar
    21    19    20   ar
    22    20    21    2
    23    20    22   ar
    24    22    23   ar
    25    14    15   ar
    26    15    16   ar
    27     6     7   ar
    28     7     8   ar
    29     8     9   ar
    30     9    10   ar
    31    31    27    1
    32    10     1   ar
    33     9     4   ar
    34    16    11   ar
    35    23    17   ar
@<TRIPOS>MOLECULE
*****
 31 35 0 0 0
SMALL
GASTEIGER

@<TRIPOS>ATOM
      1 C         142.3780  144.5327  156.8845 C.ar    1  UNL1       -0.0207
      2 C         143.1653  143.3487  157.3623 C.ar    1  UNL1       -0.0027
      3 C         143.0703  142.9132  158.7945 C.ar    1  UNL1        0.0188
      4 C         142.1879  143.6618  159.7490 C.ar    1  UNL1        0.0812
      5 N         142.0928  143.2263  161.1813 N.ar    1  UNL1       -0.2454
      6 C         141.2104  143.9748  162.1358 C.ar    1  UNL1        0.0813
      7 C         140.4231  145.1589  161.6579 C.ar    1  UNL1        0.0191
      8 C         140.5182  145.5943  160.2257 C.ar    1  UNL1        0.0030
      9 C         141.4005  144.8458  159.2712 C.ar    1  UNL1        0.0174
     10 C         141.4956  145.2812  157.8390 C.ar    1  UNL1       -0.0027
     11 C         141.1153  143.5394  163.5680 C.ar    1  UNL1        0.0177
     12 C         139.8050  143.6265  164.2930 C.ar    1  UNL1        0.0030
     13 C         139.7099  143.1910  165.7252 C.ar    1  UNL1        0.0176
     14 C         140.9251  142.6685  166.4325 C.ar    1  UNL1        0.0641
     15 C         142.2354  142.5814  165.7076 C.ar    1  UNL1        0.0176
     16 C         142.3305  143.0169  164.2753 C.ar    1  UNL1        0.0030
     17 N         140.8300  142.2331  167.8647 N.ar    1  UNL1       -0.3034
     18 C         141.0762  140.7993  168.2307 C.ar    1  UNL1        0.0834
     19 C         140.9811  140.3639  169.6629 C.ar    1  UNL1        0.0610
     20 C         140.6398  141.3621  170.7292 C.ar    1  UNL1        0.1987
     21 O         140.5447  140.9267  172.1614 O.2     1  UNL1       -0.2865
     22 C         140.3936  142.7958  170.3633 C.ar    1  UNL1        0.0610
     23 C         140.4887  143.2313  168.9310 C.ar    1  UNL1        0.0834
     24 C         142.4731  144.9682  155.4522 C.3     1  UNL1        0.0437
     25 C         141.4884  144.4530  154.4448 C.3     1  UNL1        0.0768
     26 C         139.8337  147.2507  154.7346 C.3     1  UNL1        0.0173
     27 C         139.2555  145.8702  154.8332 C.3     1  UNL1        0.0576
     28 C         137.8153  145.5333  155.0824 C.3     1  UNL1        0.0174
     29 C         137.6857  144.0390  155.1031 C.3     1  UNL1        0.0187
     30 C         139.0460  143.4524  154.8668 C.3     1  UNL1        0.0721
     31 N         140.0161  144.5843  154.7000 N.3     1  UNL1       -0.2737
@<TRIPOS>BOND
     1    27    26    1
     2    27    28    1
     3    28    29    1
     4    29    30    1
     5    30    31    1
     6    31    25    1
     7    25    24    1
     8    24     1    1
     9     1     2   ar
    10     2     3   ar
    11     3     4   ar
    12     4     5   ar
    13     5     6   ar
    14     6    11    1
    15    11    12   ar
    16    12    13   ar
    17    13    14   ar
    18    14    17    1
    19    17    18   ar
    20    18    19   ar
    21    19    20   ar
    22    20    21    2
    23    20    22   ar
    24    22    23   ar
    25    14    15   ar
    26    15    16   ar
    27     6     7   ar
    28     7     8   ar
    29     8     9   ar
    30     9    10   ar
    31    31    27    1
    32    10     1   ar
    33     9     4   ar
    34    16    11   ar
    35    23    17   ar
@<TRIPOS>MOLECULE
*****
 31 35 0 0 0
SMALL
GASTEIGER

@<TRIPOS>ATOM
      1 C         142.3297  138.8699  156.8798 C.ar    1  UNL1       -0.0207
      2 C         143.4265  139.6773  157.5083 C.ar    1  UNL1       -0.0027
      3 C         143.3350  140.0702  158.9530 C.ar    1  UNL1        0.0188
      4 C         142.1467  139.6557  159.7692 C.ar    1  UNL1        0.0812
      5 N         142.0553  140.0486  161.2140 N.ar    1  UNL1       -0.2454
      6 C         140.8669  139.6341  162.0301 C.ar    1  UNL1        0.0813
      7 C         139.7701  138.8267  161.4015 C.ar    1  UNL1        0.0191
      8 C         139.8616  138.4338  159.9568 C.ar    1  UNL1        0.0030
      9 C         141.0499  138.8483  159.1406 C.ar    1  UNL1        0.0174
     10 C         141.1414  138.4554  157.6959 C.ar    1  UNL1       -0.0027
     11 C         140.7754  140.0270  163.4748 C.ar    1  UNL1        0.0177
     12 C         139.4376  140.0978  164.1496 C.ar    1  UNL1        0.0030
     13 C         139.3461  140.4907  165.5943 C.ar    1  UNL1        0.0176
     14 C         140.5924  140.8128  166.3643 C.ar    1  UNL1        0.0641
     15 C         141.9302  140.7420  165.6897 C.ar    1  UNL1        0.0176
     16 C         142.0218  140.3491  164.2449 C.ar    1  UNL1        0.0030
     17 N         140.5009  141.2057  167.8090 N.ar    1  UNL1       -0.3034
     18 C         140.6851  142.6395  168.2095 C.ar    1  UNL1        0.0834
     19 C         140.5936  143.0324  169.6542 C.ar    1  UNL1        0.0610
     20 C         140.3179  141.9915  170.6985 C.ar    1  UNL1        0.1987
     21 O         140.2264  142.3844  172.1432 O.2     1  UNL1       -0.2865
     22 C         140.1337  140.5578  170.2981 C.ar    1  UNL1        0.0610
     23 C         140.2252  140.1648  168.8533 C.ar    1  UNL1        0.0834
     24 C         142.4212  138.4770  155.4350 C.3     1  UNL1        0.0437
     25 C         143.2558  137.2984  155.0297 C.3     1  UNL1        0.0768
     26 C         143.2135  134.9008  157.2430 C.3     1  UNL1        0.0173
     27 C         142.5990  134.8493  155.8757 C.3     1  UNL1        0.0576
     28 C         141.8571  133.6868  155.2857 C.3     1  UNL1        0.0174
     29 C         141.4180  134.0704  153.9036 C.3     1  UNL1        0.0187
     30 C         141.8885  135.4700  153.6395 C.3     1  UNL1        0.0721
     31 N         142.6184  135.9514  154.8583 N.3     1  UNL1       -0.2737
@<TRIPOS>BOND
     1    27    26    1
     2    27    28    1
     3    28    29    1
     4    29    30    1
     5    30    31    1
     6    31    25    1
     7    25    24    1
     8    24     1    1
     9     1     2   ar
    10     2     3   ar
    11     3     4   ar
    12     4     5   ar
    13     5     6   ar
    14     6    11    1
    15    11    12   ar
    16    12    13   ar
    17    13    14   ar
    18    14    17    1
    19    17    18   ar
    20    18    19   ar
    21    19    20   ar
    22    20    21    2
    23    20    22   ar
    24    22    23   ar
    25    14    15   ar
    26    15    16   ar
    27     6     7   ar
    28     7     8   ar
    29     8     9   ar
    30     9    10   ar
    31    31    27    1
    32    10     1   ar
    33     9     4   ar
    34    16    11   ar
    35    23    17   ar
@<TRIPOS>MOLECULE
*****
 31 35 0 0 0
SMALL
GASTEIGER

@<TRIPOS>ATOM
      1 C         139.8294  140.2879  167.2812 C.ar    1  UNL1       -0.0207
      2 C         140.1857  141.6308  166.7158 C.ar    1  UNL1       -0.0027
      3 C         140.7553  141.7347  165.3321 C.ar    1  UNL1        0.0188
      4 C         140.9686  140.4959  164.5138 C.ar    1  UNL1        0.0812
      5 N         141.5383  140.5999  163.1300 N.ar    1  UNL1       -0.2454
      6 C         141.7516  139.3610  162.3117 C.ar    1  UNL1        0.0813
      7 C         141.3954  138.0181  162.8771 C.ar    1  UNL1        0.0191
      8 C         140.8257  137.9141  164.2608 C.ar    1  UNL1        0.0030
      9 C         140.6124  139.1530  165.0791 C.ar    1  UNL1        0.0174
     10 C         140.0428  139.0490  166.4628 C.ar    1  UNL1       -0.0027
     11 C         142.3213  139.4650  160.9280 C.ar    1  UNL1        0.0177
     12 C         143.1901  140.6312  160.5602 C.ar    1  UNL1        0.0030
     13 C         143.7597  140.7352  159.1765 C.ar    1  UNL1        0.0176
     14 C         143.4605  139.6730  158.1605 C.ar    1  UNL1        0.0641
     15 C         142.5918  138.5069  158.5282 C.ar    1  UNL1        0.0176
     16 C         142.0221  138.4028  159.9120 C.ar    1  UNL1        0.0030
     17 N         144.0301  139.7770  156.7768 N.ar    1  UNL1       -0.3034
     18 C         143.4585  138.9466  155.6660 C.ar    1  UNL1        0.0834
     19 C         144.0281  139.0506  154.2823 C.ar    1  UNL1        0.0610
     20 C         145.1694  139.9850  154.0093 C.ar    1  UNL1        0.1987
     21 O         145.7390  140.0889  152.6256 O.2     1  UNL1       -0.2865
     22 C         145.7410  140.8153  155.1200 C.ar    1  UNL1        0.0610
     23 C         145.1714  140.7114  156.5038 C.ar    1  UNL1        0.0834
     24 C         139.2598  140.1838  168.6649 C.3     1  UNL1        0.0437
     25 C         140.1758  140.1444  169.8521 C.3     1  UNL1        0.0768
     26 C         140.1079  143.3833  170.2442 C.3     1  UNL1        0.0173
     27 C         141.3384  142.5397  170.0890 C.3     1  UNL1        0.0576
     28 C         142.7537  143.0366  170.0868 C.3     1  UNL1        0.0174
     29 C         143.6596  141.8549  169.9052 C.3     1  UNL1        0.0187
     30 C         142.8041  140.6276  169.7951 C.3     1  UNL1        0.0721
     31 N         141.3696  141.0509  169.9087 N.3     1  UNL1       -0.2737
@<TRIPOS>BOND
     1    27    26    1
     2    27    28    1
     3    28    29    1
     4    29    30    1
     5    30    31    1
     6    31    25    1
     7    25    24    1
     8    24     1    1
     9     1     2   ar
    10     2     3   ar
    11     3     4   ar
    12     4     5   ar
    13     5     6   ar
    14     6    11    1
    15    11    12   ar
    16    12    13   ar
    17    13    14   ar
    18    14    17    1
    19    17    18   ar
    20    18    19   ar
    21    19    20   ar
    22    20    21    2
    23    20    22   ar
    24    22    23   ar
    25    14    15   ar
    26    15    16   ar
    27     6     7   ar
    28     7     8   ar
    29     8     9   ar
    30     9    10   ar
    31    31    27    1
    32    10     1   ar
    33     9     4   ar
    34    16    11   ar
    35    23    17   ar
