@<TRIPOS>MOLECULE
*****
 31 34 0 0 0
SMALL
GASTEIGER

@<TRIPOS>ATOM
      1 N         142.7624  138.1600  162.1370 N.3     1  UNL1       -0.2921
      2 H         143.3609  138.7070  161.5181 H       1  UNL1        0.1236
      3 C         142.5846  138.9648  163.3902 C.3     1  UNL1        0.0761
      4 C         142.7053  138.4494  164.7937 C.3     1  UNL1        0.0390
      5 C         142.4502  139.5925  165.7308 C.3     1  UNL1        0.0952
      6 N         142.1718  140.8143  164.9065 N.am    1  UNL1       -0.2747
      7 C         141.8643  142.1837  165.4359 C.2     1  UNL1        0.2491
      8 O         141.6060  143.3148  164.4851 O.2     1  UNL1       -0.2699
      9 C         142.2549  140.4264  163.4599 C.3     1  UNL1        0.1094
     10 C         141.8151  142.4220  166.9161 C.ar    1  UNL1        0.0544
     11 C         140.5137  142.7668  167.5773 C.ar    1  UNL1        0.0046
     12 C         140.4644  143.0051  169.0574 C.ar    1  UNL1        0.0010
     13 C         141.7166  142.8987  169.8762 C.ar    1  UNL1        0.0114
     14 C         143.0181  142.5539  169.2150 C.ar    1  UNL1        0.0578
     15 CL        144.2704  142.4475  170.0338 Cl      1  UNL1       -0.0822
     16 C         143.0674  142.3156  167.7349 C.ar    1  UNL1        0.0159
     17 C         141.5647  137.7517  161.3315 C.3     1  UNL1        0.1148
     18 N         139.3797  139.1101  160.6065 N.ar    1  UNL1       -0.3070
     19 C         139.0800  140.1739  159.5924 C.ar    1  UNL1        0.1786
     20 N         140.3515  140.4891  158.8616 N.ar    1  UNL1       -0.2226
     21 C         141.4371  139.6201  159.4242 C.ar    1  UNL1        0.1147
     22 C         140.8365  138.7678  160.5025 C.ar    1  UNL1        0.0739
     23 C         138.3955  138.4963  161.5576 C.3     1  UNL1        0.1340
     24 C         138.7816  139.2316  165.9803 C.ar    1  UNL1        0.0684
     25 C         138.4310  140.3628  165.0597 C.ar    1  UNL1        0.0100
     26 C         138.3023  140.1177  163.5855 C.ar    1  UNL1       -0.0017
     27 C         138.5242  138.7414  163.0318 C.ar    1  UNL1        0.0005
     28 C         138.8748  137.6102  163.9524 C.ar    1  UNL1       -0.0017
     29 C         139.0035  137.8553  165.4266 C.ar    1  UNL1        0.0100
     30 N         139.0390  139.7219  168.9288 N.1     1  UNL1       -0.1908
     31 C         138.9103  139.4767  167.4545 C.1     1  UNL1        0.1004
@<TRIPOS>BOND
     1    30    31    3
     2    31    24    1
     3    24    25   ar
     4    25    26   ar
     5    26    27   ar
     6    27    23    1
     7    23    18    1
     8    18    19   ar
     9    19    20   ar
    10    20    21   ar
    11    21    22   ar
    12    22    17    1
    13    17     1    1
    14     3     1    1
    15     3     4    1
    16     4     5    1
    17     5     6    1
    18     6     7   am
    19     7     8    2
    20     7    10    1
    21    10    11   ar
    22    11    12   ar
    23    12    13   ar
    24    13    14   ar
    25    14    15    1
    26    14    16   ar
    27     6     9    1
    28    27    28   ar
    29    28    29   ar
    30    29    24   ar
    31    22    18   ar
    32     9     3    1
    33    16    10   ar
    34     1     2    1
@<TRIPOS>MOLECULE
*****
 31 34 0 0 0
SMALL
GASTEIGER

@<TRIPOS>ATOM
      1 N         137.6708  139.1838  162.5346 N.3     1  UNL1       -0.2921
      2 H         137.0482  138.4888  162.9465 H       1  UNL1        0.1236
      3 C         138.4539  139.7865  163.6630 C.3     1  UNL1        0.0761
      4 C         138.5105  139.2717  165.0707 C.3     1  UNL1        0.0390
      5 C         139.4096  140.1769  165.8595 C.3     1  UNL1        0.0952
      6 N         139.9087  141.2511  164.9393 N.am    1  UNL1       -0.2747
      7 C         140.8356  142.3702  165.3113 C.2     1  UNL1        0.2491
      8 O         141.2502  143.3756  164.2781 O.2     1  UNL1       -0.2699
      9 C         139.3181  141.0099  163.5817 C.3     1  UNL1        0.1094
     10 C         141.3481  142.4839  166.7165 C.ar    1  UNL1        0.0544
     11 C         142.8018  142.2538  167.0055 C.ar    1  UNL1        0.0046
     12 C         143.3144  142.3675  168.4106 C.ar    1  UNL1        0.0010
     13 C         142.3731  142.7114  169.5267 C.ar    1  UNL1        0.0114
     14 C         140.9193  142.9415  169.2377 C.ar    1  UNL1        0.0578
     15 CL        139.9780  143.2854  170.3538 Cl      1  UNL1       -0.0822
     16 C         140.4068  142.8278  167.8325 C.ar    1  UNL1        0.0159
     17 C         138.3857  138.5077  161.4024 C.3     1  UNL1        0.1148
     18 N         140.6396  139.1857  160.1354 N.ar    1  UNL1       -0.3070
     19 C         141.0051  140.1957  159.0883 C.ar    1  UNL1        0.1786
     20 N         139.7645  140.9567  158.7252 N.ar    1  UNL1       -0.2226
     21 C         138.6322  140.4169  159.5479 C.ar    1  UNL1        0.1147
     22 C         139.1731  139.3225  160.4194 C.ar    1  UNL1        0.0739
     23 C         141.5762  138.2102  160.7845 C.3     1  UNL1        0.1340
     24 C         142.5317  138.5832  165.1660 C.ar    1  UNL1        0.0684
     25 C         141.6520  137.4687  164.6825 C.ar    1  UNL1        0.0100
     26 C         141.3335  137.3444  163.2220 C.ar    1  UNL1       -0.0017
     27 C         141.8947  138.3346  162.2450 C.ar    1  UNL1        0.0005
     28 C         142.7744  139.4491  162.7285 C.ar    1  UNL1       -0.0017
     29 C         143.0929  139.5734  164.1891 C.ar    1  UNL1        0.0100
     30 N         143.1687  138.8319  168.0870 N.1     1  UNL1       -0.1908
     31 C         142.8502  138.7076  166.6265 C.1     1  UNL1        0.1004
@<TRIPOS>BOND
     1    30    31    3
     2    31    24    1
     3    24    25   ar
     4    25    26   ar
     5    26    27   ar
     6    27    23    1
     7    23    18    1
     8    18    19   ar
     9    19    20   ar
    10    20    21   ar
    11    21    22   ar
    12    22    17    1
    13    17     1    1
    14     3     1    1
    15     3     4    1
    16     4     5    1
    17     5     6    1
    18     6     7   am
    19     7     8    2
    20     7    10    1
    21    10    11   ar
    22    11    12   ar
    23    12    13   ar
    24    13    14   ar
    25    14    15    1
    26    14    16   ar
    27     6     9    1
    28    27    28   ar
    29    28    29   ar
    30    29    24   ar
    31    22    18   ar
    32     9     3    1
    33    16    10   ar
    34     1     2    1
@<TRIPOS>MOLECULE
*****
 31 34 0 0 0
SMALL
GASTEIGER

@<TRIPOS>ATOM
      1 N         144.0975  141.5429  161.8988 N.3     1  UNL1       -0.2921
      2 H         143.6190  142.2238  161.3090 H       1  UNL1        0.1236
      3 C         143.4109  141.5667  163.2322 C.3     1  UNL1        0.0761
      4 C         144.0858  141.6267  164.5705 C.3     1  UNL1        0.0390
      5 C         143.0209  141.6318  165.6268 C.3     1  UNL1        0.0952
      6 N         141.6879  141.5750  164.9414 N.am    1  UNL1       -0.2747
      7 C         140.3489  141.5608  165.6173 C.2     1  UNL1        0.2491
      8 O         139.0949  141.5018  164.7963 O.2     1  UNL1       -0.2699
      9 C         141.9289  141.5347  163.4615 C.3     1  UNL1        0.1094
     10 C         140.2638  141.6057  167.1143 C.ar    1  UNL1        0.0544
     11 C         140.0326  140.3433  167.8905 C.ar    1  UNL1        0.0046
     12 C         139.9475  140.3881  169.3874 C.ar    1  UNL1        0.0010
     13 C         140.0937  141.6955  170.1081 C.ar    1  UNL1        0.0114
     14 C         140.3250  142.9580  169.3318 C.ar    1  UNL1        0.0578
     15 CL        140.4712  144.2654  170.0525 Cl      1  UNL1       -0.0822
     16 C         140.4100  142.9132  167.8349 C.ar    1  UNL1        0.0159
     17 C         144.1696  140.2660  161.1150 C.3     1  UNL1        0.1148
     18 N         142.1553  138.7250  160.2705 N.ar    1  UNL1       -0.3070
     19 C         141.2112  138.7577  159.1053 C.ar    1  UNL1        0.1786
     20 N         141.5419  139.9621  158.2744 N.ar    1  UNL1       -0.2226
     21 C         142.6904  140.6737  158.9262 C.ar    1  UNL1        0.1147
     22 C         143.0695  139.9091  160.1598 C.ar    1  UNL1        0.0739
     23 C         142.1808  137.6900  161.3558 C.3     1  UNL1        0.1340
     24 C         139.2795  137.9542  164.7856 C.ar    1  UNL1        0.0684
     25 C         140.7549  137.9130  165.0528 C.ar    1  UNL1        0.0100
     26 C         141.7220  137.8249  163.9095 C.ar    1  UNL1       -0.0017
     27 C         141.2137  137.7780  162.4991 C.ar    1  UNL1        0.0005
     28 C         139.7383  137.8193  162.2319 C.ar    1  UNL1       -0.0017
     29 C         138.7712  137.9073  163.3751 C.ar    1  UNL1        0.0100
     30 N         137.3454  138.1303  167.0720 N.1     1  UNL1       -0.1908
     31 C         138.3124  138.0423  165.9288 C.1     1  UNL1        0.1004
@<TRIPOS>BOND
     1    30    31    3
     2    31    24    1
     3    24    25   ar
     4    25    26   ar
     5    26    27   ar
     6    27    23    1
     7    23    18    1
     8    18    19   ar
     9    19    20   ar
    10    20    21   ar
    11    21    22   ar
    12    22    17    1
    13    17     1    1
    14     3     1    1
    15     3     4    1
    16     4     5    1
    17     5     6    1
    18     6     7   am
    19     7     8    2
    20     7    10    1
    21    10    11   ar
    22    11    12   ar
    23    12    13   ar
    24    13    14   ar
    25    14    15    1
    26    14    16   ar
    27     6     9    1
    28    27    28   ar
    29    28    29   ar
    30    29    24   ar
    31    22    18   ar
    32     9     3    1
    33    16    10   ar
    34     1     2    1
@<TRIPOS>MOLECULE
*****
 31 34 0 0 0
SMALL
GASTEIGER

@<TRIPOS>ATOM
      1 N         144.9105  141.8013  162.6739 N.3     1  UNL1       -0.2921
      2 H         145.4120  142.6895  162.6702 H       1  UNL1        0.1236
      3 C         144.2148  141.7025  163.9992 C.3     1  UNL1        0.0761
      4 C         143.5081  142.8188  164.7093 C.3     1  UNL1        0.0390
      5 C         142.9602  142.2762  165.9960 C.3     1  UNL1        0.0952
      6 N         143.3283  140.8246  166.0809 N.am    1  UNL1       -0.2747
      7 C         142.9819  139.8914  167.2030 C.2     1  UNL1        0.2491
      8 O         143.4207  138.4581  167.1491 O.2     1  UNL1       -0.2699
      9 C         144.1037  140.4700  164.8469 C.3     1  UNL1        0.1094
     10 C         142.1966  140.3916  168.3792 C.ar    1  UNL1        0.0544
     11 C         142.8702  141.2186  169.4337 C.ar    1  UNL1        0.0046
     12 C         142.0849  141.7188  170.6098 C.ar    1  UNL1        0.0010
     13 C         140.6260  141.3919  170.7313 C.ar    1  UNL1        0.0114
     14 C         139.9524  140.5648  169.6767 C.ar    1  UNL1        0.0578
     15 CL        138.4935  140.2379  169.7982 Cl      1  UNL1       -0.0822
     16 C         140.7376  140.0646  168.5006 C.ar    1  UNL1        0.0159
     17 C         144.1150  141.7478  161.4033 C.3     1  UNL1        0.1148
     18 N         141.9481  140.1923  161.5753 N.ar    1  UNL1       -0.3070
     19 C         141.5383  138.8752  160.9857 C.ar    1  UNL1        0.1786
     20 N         142.6577  138.3897  160.1130 N.ar    1  UNL1       -0.2226
     21 C         143.7592  139.4067  160.1633 C.ar    1  UNL1        0.1147
     22 C         143.3206  140.5207  161.0669 C.ar    1  UNL1        0.0739
     23 C         141.1291  141.0332  162.5091 C.3     1  UNL1        0.1340
     24 C         138.5878  139.0706  165.6619 C.ar    1  UNL1        0.0684
     25 C         138.1047  140.3140  164.9760 C.ar    1  UNL1        0.0100
     26 C         138.9518  140.9682  163.9250 C.ar    1  UNL1       -0.0017
     27 C         140.2820  140.3790  163.5600 C.ar    1  UNL1        0.0005
     28 C         140.7652  139.1356  164.2460 C.ar    1  UNL1       -0.0017
     29 C         139.9181  138.4815  165.2969 C.ar    1  UNL1        0.0100
     30 N         136.8937  137.7622  167.7638 N.1     1  UNL1       -0.1908
     31 C         137.7407  138.4164  166.7128 C.1     1  UNL1        0.1004
@<TRIPOS>BOND
     1    30    31    3
     2    31    24    1
     3    24    25   ar
     4    25    26   ar
     5    26    27   ar
     6    27    23    1
     7    23    18    1
     8    18    19   ar
     9    19    20   ar
    10    20    21   ar
    11    21    22   ar
    12    22    17    1
    13    17     1    1
    14     3     1    1
    15     3     4    1
    16     4     5    1
    17     5     6    1
    18     6     7   am
    19     7     8    2
    20     7    10    1
    21    10    11   ar
    22    11    12   ar
    23    12    13   ar
    24    13    14   ar
    25    14    15    1
    26    14    16   ar
    27     6     9    1
    28    27    28   ar
    29    28    29   ar
    30    29    24   ar
    31    22    18   ar
    32     9     3    1
    33    16    10   ar
    34     1     2    1
@<TRIPOS>MOLECULE
*****
 31 34 0 0 0
SMALL
GASTEIGER

@<TRIPOS>ATOM
      1 N         140.4670  146.2483  162.4669 N.3     1  UNL1       -0.2921
      2 H         139.8417  146.8944  162.9485 H       1  UNL1        0.1236
      3 C         140.8431  145.1887  163.4598 C.3     1  UNL1        0.0761
      4 C         139.9268  144.5588  164.4666 C.3     1  UNL1        0.0390
      5 C         140.7189  143.5538  165.2493 C.3     1  UNL1        0.0952
      6 N         142.1247  143.5627  164.7262 N.am    1  UNL1       -0.2747
      7 C         143.2553  142.7107  165.2221 C.2     1  UNL1        0.2491
      8 O         144.6141  142.8302  164.5981 O.2     1  UNL1       -0.2699
      9 C         142.2015  144.5731  163.6203 C.3     1  UNL1        0.1094
     10 C         143.0271  141.7391  166.3419 C.ar    1  UNL1        0.0544
     11 C         142.7522  140.2961  166.0385 C.ar    1  UNL1        0.0046
     12 C         142.5240  139.3246  167.1583 C.ar    1  UNL1        0.0010
     13 C         142.5707  139.7960  168.5815 C.ar    1  UNL1        0.0114
     14 C         142.8456  141.2391  168.8849 C.ar    1  UNL1        0.0578
     15 CL        142.8924  141.7105  170.3081 Cl      1  UNL1       -0.0822
     16 C         143.0738  142.2107  167.7651 C.ar    1  UNL1        0.0159
     17 C         139.7910  145.8672  161.1832 C.3     1  UNL1        0.1148
     18 N         139.8145  143.4239  160.0994 N.ar    1  UNL1       -0.3070
     19 C         140.7239  142.6891  159.1597 C.ar    1  UNL1        0.1786
     20 N         141.8523  143.6074  158.7937 N.ar    1  UNL1       -0.2226
     21 C         141.6401  144.9097  159.5072 C.ar    1  UNL1        0.1147
     22 C         140.3807  144.7963  160.3141 C.ar    1  UNL1        0.0739
     23 C         138.5592  142.8816  160.7160 C.3     1  UNL1        0.1340
     24 C         138.7456  140.6912  164.6425 C.ar    1  UNL1        0.0684
     25 C         139.8374  140.5099  163.6300 C.ar    1  UNL1        0.0100
     26 C         139.7752  141.2401  162.3212 C.ar    1  UNL1       -0.0017
     27 C         138.6214  142.1515  162.0248 C.ar    1  UNL1        0.0005
     28 C         137.5296  142.3327  163.0373 C.ar    1  UNL1       -0.0017
     29 C         137.5917  141.6026  164.3461 C.ar    1  UNL1        0.0100
     30 N         138.8699  139.2309  167.2601 N.1     1  UNL1       -0.1908
     31 C         138.8078  139.9610  165.9513 C.1     1  UNL1        0.1004
@<TRIPOS>BOND
     1    30    31    3
     2    31    24    1
     3    24    25   ar
     4    25    26   ar
     5    26    27   ar
     6    27    23    1
     7    23    18    1
     8    18    19   ar
     9    19    20   ar
    10    20    21   ar
    11    21    22   ar
    12    22    17    1
    13    17     1    1
    14     3     1    1
    15     3     4    1
    16     4     5    1
    17     5     6    1
    18     6     7   am
    19     7     8    2
    20     7    10    1
    21    10    11   ar
    22    11    12   ar
    23    12    13   ar
    24    13    14   ar
    25    14    15    1
    26    14    16   ar
    27     6     9    1
    28    27    28   ar
    29    28    29   ar
    30    29    24   ar
    31    22    18   ar
    32     9     3    1
    33    16    10   ar
    34     1     2    1
@<TRIPOS>MOLECULE
*****
 31 34 0 0 0
SMALL
GASTEIGER

@<TRIPOS>ATOM
      1 N         141.6113  142.0104  160.9972 N.3     1  UNL1       -0.2921
      2 H         141.0479  142.7733  160.6219 H       1  UNL1        0.1236
      3 C         141.6431  142.1876  162.4864 C.3     1  UNL1        0.0761
      4 C         141.9724  143.4558  163.2166 C.3     1  UNL1        0.0390
      5 C         141.8840  143.1796  164.6883 C.3     1  UNL1        0.0952
      6 N         141.5000  141.7408  164.8676 N.am    1  UNL1       -0.2747
      7 C         141.3001  141.0383  166.1778 C.2     1  UNL1        0.2491
      8 O         140.9149  139.5888  166.2005 O.2     1  UNL1       -0.2699
      9 C         141.3512  141.1276  163.5068 C.3     1  UNL1        0.1094
     10 C         141.4853  141.7855  167.4653 C.ar    1  UNL1        0.0544
     11 C         140.3294  142.5167  168.0809 C.ar    1  UNL1        0.0046
     12 C         140.5146  143.2638  169.3684 C.ar    1  UNL1        0.0010
     13 C         141.8556  143.2796  170.0402 C.ar    1  UNL1        0.0114
     14 C         143.0115  142.5483  169.4245 C.ar    1  UNL1        0.0578
     15 CL        144.3526  142.5640  170.0963 Cl      1  UNL1       -0.0822
     16 C         142.8264  141.8012  168.1370 C.ar    1  UNL1        0.0159
     17 C         141.0730  140.7421  160.4041 C.3     1  UNL1        0.1148
     18 N         138.5208  140.6216  159.6188 N.ar    1  UNL1       -0.3070
     19 C         137.8074  140.7567  158.3063 C.ar    1  UNL1        0.1786
     20 N         138.8349  141.0178  157.2450 N.ar    1  UNL1       -0.2226
     21 C         140.1833  141.0442  157.9017 C.ar    1  UNL1        0.1147
     22 C         139.9892  140.7993  159.3688 C.ar    1  UNL1        0.0739
     23 C         137.8787  140.3555  160.9480 C.3     1  UNL1        0.1340
     24 C         138.0258  143.4796  164.1835 C.ar    1  UNL1        0.0684
     25 C         137.8878  142.0306  164.5458 C.ar    1  UNL1        0.0100
     26 C         137.8387  140.9892  163.4673 C.ar    1  UNL1       -0.0017
     27 C         137.9277  141.3969  162.0265 C.ar    1  UNL1        0.0005
     28 C         138.0657  142.8459  161.6643 C.ar    1  UNL1       -0.0017
     29 C         138.1147  143.8873  162.7428 C.ar    1  UNL1        0.0100
     30 N         138.1238  145.5624  166.3405 N.1     1  UNL1       -0.1908
     31 C         138.0748  144.5210  165.2620 C.1     1  UNL1        0.1004
@<TRIPOS>BOND
     1    30    31    3
     2    31    24    1
     3    24    25   ar
     4    25    26   ar
     5    26    27   ar
     6    27    23    1
     7    23    18    1
     8    18    19   ar
     9    19    20   ar
    10    20    21   ar
    11    21    22   ar
    12    22    17    1
    13    17     1    1
    14     3     1    1
    15     3     4    1
    16     4     5    1
    17     5     6    1
    18     6     7   am
    19     7     8    2
    20     7    10    1
    21    10    11   ar
    22    11    12   ar
    23    12    13   ar
    24    13    14   ar
    25    14    15    1
    26    14    16   ar
    27     6     9    1
    28    27    28   ar
    29    28    29   ar
    30    29    24   ar
    31    22    18   ar
    32     9     3    1
    33    16    10   ar
    34     1     2    1
@<TRIPOS>MOLECULE
*****
 31 34 0 0 0
SMALL
GASTEIGER

@<TRIPOS>ATOM
      1 N         138.5002  142.1268  160.8223 N.3     1  UNL1       -0.2921
      2 H         137.8114  142.8664  160.6845 H       1  UNL1        0.1236
      3 C         138.7349  142.0235  162.3002 C.3     1  UNL1        0.0761
      4 C         137.6787  142.0535  163.3648 C.3     1  UNL1        0.0390
      5 C         138.3581  141.9206  164.6956 C.3     1  UNL1        0.0952
      6 N         139.8341  141.8086  164.4533 N.am    1  UNL1       -0.2747
      7 C         140.8916  141.6592  165.5065 C.2     1  UNL1        0.2491
      8 O         142.3350  141.5585  165.1111 O.2     1  UNL1       -0.2699
      9 C         140.0670  141.8722  162.9729 C.3     1  UNL1        0.1094
     10 C         140.5057  141.6103  166.9553 C.ar    1  UNL1        0.0544
     11 C         139.9854  140.3355  167.5502 C.ar    1  UNL1        0.0046
     12 C         139.5995  140.2867  168.9989 C.ar    1  UNL1        0.0010
     13 C         139.7338  141.5127  169.8526 C.ar    1  UNL1        0.0114
     14 C         140.2541  142.7876  169.2576 C.ar    1  UNL1        0.0578
     15 CL        140.3885  144.0136  170.1113 Cl      1  UNL1       -0.0822
     16 C         140.6401  142.8364  167.8089 C.ar    1  UNL1        0.0159
     17 C         138.0135  140.9334  160.0548 C.3     1  UNL1        0.1148
     18 N         139.5070  138.7521  159.6591 N.ar    1  UNL1       -0.3070
     19 C         140.4456  138.2900  158.5842 C.ar    1  UNL1        0.1786
     20 N         140.5011  139.3542  157.5283 N.ar    1  UNL1       -0.2226
     21 C         139.5968  140.4739  157.9508 C.ar    1  UNL1        0.1147
     22 C         138.9824  140.1019  159.2676 C.ar    1  UNL1        0.0739
     23 C         139.1547  137.9971  160.9064 C.3     1  UNL1        0.1340
     24 C         141.8880  138.1521  164.4778 C.ar    1  UNL1        0.0684
     25 C         140.4039  138.0555  164.6729 C.ar    1  UNL1        0.0100
     26 C         139.4928  138.0038  163.4824 C.ar    1  UNL1       -0.0017
     27 C         140.0658  138.0488  162.0969 C.ar    1  UNL1        0.0005
     28 C         141.5499  138.1455  161.9019 C.ar    1  UNL1       -0.0017
     29 C         142.4610  138.1971  163.0924 C.ar    1  UNL1        0.0100
     30 N         143.7102  138.2554  166.8588 N.1     1  UNL1       -0.1908
     31 C         142.7991  138.2038  165.6683 C.1     1  UNL1        0.1004
@<TRIPOS>BOND
     1    30    31    3
     2    31    24    1
     3    24    25   ar
     4    25    26   ar
     5    26    27   ar
     6    27    23    1
     7    23    18    1
     8    18    19   ar
     9    19    20   ar
    10    20    21   ar
    11    21    22   ar
    12    22    17    1
    13    17     1    1
    14     3     1    1
    15     3     4    1
    16     4     5    1
    17     5     6    1
    18     6     7   am
    19     7     8    2
    20     7    10    1
    21    10    11   ar
    22    11    12   ar
    23    12    13   ar
    24    13    14   ar
    25    14    15    1
    26    14    16   ar
    27     6     9    1
    28    27    28   ar
    29    28    29   ar
    30    29    24   ar
    31    22    18   ar
    32     9     3    1
    33    16    10   ar
    34     1     2    1
@<TRIPOS>MOLECULE
*****
 31 34 0 0 0
SMALL
GASTEIGER

@<TRIPOS>ATOM
      1 N         144.4735  139.0994  162.5801 N.3     1  UNL1       -0.2921
      2 H         144.4853  139.9135  161.9656 H       1  UNL1        0.1236
      3 C         143.9928  139.5746  163.9191 C.3     1  UNL1        0.0761
      4 C         143.3743  138.7223  164.9873 C.3     1  UNL1        0.0390
      5 C         143.0454  139.6066  166.1534 C.3     1  UNL1        0.0952
      6 N         143.4606  141.0054  165.8059 N.am    1  UNL1       -0.2747
      7 C         143.3157  142.2121  166.6850 C.2     1  UNL1        0.2491
      8 O         143.7789  143.5537  166.1995 O.2     1  UNL1       -0.2699
      9 C         144.0461  140.9857  164.4251 C.3     1  UNL1        0.1094
     10 C         142.7077  142.0774  168.0496 C.ar    1  UNL1        0.0544
     11 C         143.5275  142.3787  169.2690 C.ar    1  UNL1        0.0046
     12 C         142.9195  142.2440  170.6336 C.ar    1  UNL1        0.0010
     13 C         141.4917  141.8078  170.7788 C.ar    1  UNL1        0.0114
     14 C         140.6718  141.5064  169.5593 C.ar    1  UNL1        0.0578
     15 CL        139.2440  141.0702  169.7045 Cl      1  UNL1       -0.0822
     16 C         141.2798  141.6412  168.1947 C.ar    1  UNL1        0.0159
     17 C         143.7261  138.0200  161.8546 C.3     1  UNL1        0.1148
     18 N         141.6615  139.4210  160.8956 N.ar    1  UNL1       -0.3070
     19 C         140.9091  139.4479  159.5982 C.ar    1  UNL1        0.1786
     20 N         141.5193  138.4242  158.6872 N.ar    1  UNL1       -0.2226
     21 C         142.6489  137.7647  159.4216 C.ar    1  UNL1        0.1147
     22 C         142.7367  138.3808  160.7864 C.ar    1  UNL1        0.0739
     23 C         141.3869  140.2830  162.0920 C.3     1  UNL1        0.1340
     24 C         138.7345  138.7674  165.3962 C.ar    1  UNL1        0.0684
     25 C         139.1859  140.1978  165.3932 C.ar    1  UNL1        0.0100
     26 C         140.0700  140.7030  164.2919 C.ar    1  UNL1       -0.0017
     27 C         140.5028  139.7778  163.1934 C.ar    1  UNL1        0.0005
     28 C         140.0514  138.3474  163.1963 C.ar    1  UNL1       -0.0017
     29 C         139.1672  137.8422  164.2977 C.ar    1  UNL1        0.0100
     30 N         136.9662  137.7569  167.5989 N.1     1  UNL1       -0.1908
     31 C         137.8503  138.2622  166.4975 C.1     1  UNL1        0.1004
@<TRIPOS>BOND
     1    30    31    3
     2    31    24    1
     3    24    25   ar
     4    25    26   ar
     5    26    27   ar
     6    27    23    1
     7    23    18    1
     8    18    19   ar
     9    19    20   ar
    10    20    21   ar
    11    21    22   ar
    12    22    17    1
    13    17     1    1
    14     3     1    1
    15     3     4    1
    16     4     5    1
    17     5     6    1
    18     6     7   am
    19     7     8    2
    20     7    10    1
    21    10    11   ar
    22    11    12   ar
    23    12    13   ar
    24    13    14   ar
    25    14    15    1
    26    14    16   ar
    27     6     9    1
    28    27    28   ar
    29    28    29   ar
    30    29    24   ar
    31    22    18   ar
    32     9     3    1
    33    16    10   ar
    34     1     2    1
@<TRIPOS>MOLECULE
*****
 31 34 0 0 0
SMALL
GASTEIGER

@<TRIPOS>ATOM
      1 N         143.6965  138.8059  162.5432 N.3     1  UNL1       -0.2921
      2 H         144.7151  138.7637  162.5737 H       1  UNL1        0.1236
      3 C         143.2331  139.0954  163.9402 C.3     1  UNL1        0.0761
      4 C         142.4699  138.1578  164.8281 C.3     1  UNL1        0.0390
      5 C         142.2167  138.8563  166.1312 C.3     1  UNL1        0.0952
      6 N         142.8235  140.2256  166.0486 N.am    1  UNL1       -0.2747
      7 C         142.8052  141.2646  167.1302 C.2     1  UNL1        0.2491
      8 O         143.4570  142.5962  166.9021 O.2     1  UNL1       -0.2699
      9 C         143.4516  140.3734  164.6945 C.3     1  UNL1        0.1094
     10 C         142.1351  140.9722  168.4400 C.ar    1  UNL1        0.0544
     11 C         142.9557  140.8353  169.6881 C.ar    1  UNL1        0.0046
     12 C         142.2857  140.5429  170.9979 C.ar    1  UNL1        0.0010
     13 C         140.7951  140.3873  171.0595 C.ar    1  UNL1        0.0114
     14 C         139.9745  140.5242  169.8114 C.ar    1  UNL1        0.0578
     15 CL        138.4839  140.3686  169.8730 Cl      1  UNL1       -0.0822
     16 C         140.6445  140.8166  168.5016 C.ar    1  UNL1        0.0159
     17 C         143.3350  139.7379  161.4248 C.3     1  UNL1        0.1148
     18 N         142.2896  142.1823  161.7018 N.ar    1  UNL1       -0.3070
     19 C         142.8502  143.5591  161.9024 C.ar    1  UNL1        0.1786
     20 N         144.3456  143.4490  161.9461 N.ar    1  UNL1       -0.2226
     21 C         144.7092  142.0041  161.7725 C.ar    1  UNL1        0.1147
     22 C         143.4386  141.2213  161.6215 C.ar    1  UNL1        0.0739
     23 C         140.8355  141.8287  161.5994 C.3     1  UNL1        0.1340
     24 C         138.7903  139.7101  165.0021 C.ar    1  UNL1        0.0684
     25 C         139.3326  141.0947  165.1984 C.ar    1  UNL1        0.0100
     26 C         140.0144  141.8009  164.0642 C.ar    1  UNL1       -0.0017
     27 C         140.1538  141.1225  162.7337 C.ar    1  UNL1        0.0005
     28 C         139.6114  139.7378  162.5374 C.ar    1  UNL1       -0.0017
     29 C         138.9297  139.0316  163.6717 C.ar    1  UNL1        0.0100
     30 N         137.4268  138.2977  167.2706 N.1     1  UNL1       -0.1908
     31 C         138.1085  139.0039  166.1364 C.1     1  UNL1        0.1004
@<TRIPOS>BOND
     1    30    31    3
     2    31    24    1
     3    24    25   ar
     4    25    26   ar
     5    26    27   ar
     6    27    23    1
     7    23    18    1
     8    18    19   ar
     9    19    20   ar
    10    20    21   ar
    11    21    22   ar
    12    22    17    1
    13    17     1    1
    14     3     1    1
    15     3     4    1
    16     4     5    1
    17     5     6    1
    18     6     7   am
    19     7     8    2
    20     7    10    1
    21    10    11   ar
    22    11    12   ar
    23    12    13   ar
    24    13    14   ar
    25    14    15    1
    26    14    16   ar
    27     6     9    1
    28    27    28   ar
    29    28    29   ar
    30    29    24   ar
    31    22    18   ar
    32     9     3    1
    33    16    10   ar
    34     1     2    1
