@<TRIPOS>MOLECULE
*****
 35 39 0 0 0
SMALL
GASTEIGER

@<TRIPOS>ATOM
      1 N         141.3649  138.5235  159.7167 N.pl3   1  UNL1       -0.1872
      2 C         142.0854  137.9927  160.9204 C.3     1  UNL1        0.2025
      3 C         141.3219  137.6745  162.1718 C.3     1  UNL1        0.0523
      4 C         139.8378  137.8871  162.2193 C.3     1  UNL1        0.0242
      5 C         139.1172  138.4179  161.0155 C.3     1  UNL1        0.0523
      6 C         139.8808  138.7361  159.7642 C.3     1  UNL1        0.2025
      7 C         143.4930  135.6422  156.6865 C.2     1  UNL1        0.3756
      8 N         142.7284  136.2446  157.8278 N.2     1  UNL1       -0.0230
      9 C         142.7266  137.7340  157.6497 C.2     1  UNL1        0.3133
     10 C         142.1284  138.8416  158.4653 C.2     1  UNL1        0.3703
     11 N         142.2937  140.2674  158.0297 N.2     1  UNL1       -0.0367
     12 C         143.0572  140.5855  156.7784 C.2     1  UNL1        0.2179
     13 C         143.6554  139.4779  155.9627 C.3     1  UNL1        0.1552
     14 C         143.4901  138.0521  156.3984 C.2     1  UNL1        0.2294
     15 N         143.9638  136.7594  155.8031 N.2     1  UNL1       -0.0343
     16 F         143.1939  131.4305  153.6579 F       1  UNL1       -0.2041
     17 C         143.5934  132.0737  154.9528 C.ar    1  UNL1        0.1426
     18 C         144.2428  131.2542  156.0283 C.ar    1  UNL1        0.0593
     19 C         144.6423  131.8974  157.3232 C.ar    1  UNL1        0.1426
     20 F         145.2918  131.0779  158.3987 F       1  UNL1       -0.2041
     21 C         144.3924  133.3600  157.5426 C.ar    1  UNL1        0.0375
     22 C         143.7430  134.1795  156.4671 C.ar    1  UNL1        0.0929
     23 C         143.3435  133.5363  155.1722 C.ar    1  UNL1        0.0375
     24 C         139.0742  137.5690  163.4706 C.3     1  UNL1        0.0724
     25 N         139.2705  138.4033  164.7016 N.3     1  UNL1       -0.2703
     26 C         140.4208  139.3627  164.7818 C.3     1  UNL1        0.0897
     27 C         140.6171  140.1971  166.0128 C.3     1  UNL1        0.0899
     28 N         139.6631  140.0721  167.1635 N.3     1  UNL1       -0.2631
     29 C         138.5128  139.1127  167.0833 C.3     1  UNL1        0.0899
     30 C         138.3165  138.2783  165.8524 C.3     1  UNL1        0.0897
     31 C         139.8594  140.9064  168.3945 C.3     1  UNL1        0.1767
     32 C         139.8419  140.2612  169.7485 C.3     1  UNL1        0.4121
     33 F         139.8244  139.6160  171.1026 F       1  UNL1       -0.1685
     34 F         138.6097  141.0395  170.1034 F       1  UNL1       -0.1685
     35 F         141.0741  139.4829  169.3936 F       1  UNL1       -0.1685
@<TRIPOS>BOND
     1    16    17    1
     2    17    18   ar
     3    18    19   ar
     4    19    20    1
     5    19    21   ar
     6    21    22   ar
     7    22     7    1
     8     7     8    2
     9     8     9    1
    10     9    10    2
    11    10     1    1
    12     1     2    1
    13     2     3    1
    14     3     4    1
    15     4    24    1
    16    24    25    1
    17    25    26    1
    18    26    27    1
    19    27    28    1
    20    28    31    1
    21    31    32    1
    22    32    33    1
    23    32    34    1
    24    32    35    1
    25    28    29    1
    26    29    30    1
    27     4     5    1
    28     5     6    1
    29    10    11    1
    30    11    12    2
    31    12    13    1
    32    13    14    1
    33    14    15    2
    34    22    23   ar
    35    23    17   ar
    36    15     7    1
    37    14     9    1
    38     6     1    1
    39    30    25    1
@<TRIPOS>MOLECULE
*****
 35 39 0 0 0
SMALL
GASTEIGER

@<TRIPOS>ATOM
      1 N         142.5576  138.9506  159.9320 N.pl3   1  UNL1       -0.1872
      2 C         142.2147  138.0095  161.0485 C.3     1  UNL1        0.2025
      3 C         142.9193  138.1228  162.3680 C.3     1  UNL1        0.0523
      4 C         143.9668  139.1772  162.5707 C.3     1  UNL1        0.0242
      5 C         144.3097  140.1183  161.4541 C.3     1  UNL1        0.0523
      6 C         143.6051  140.0050  160.1347 C.3     1  UNL1        0.2025
      7 C         142.6877  135.5075  156.7475 C.2     1  UNL1        0.3756
      8 N         142.8815  136.3853  157.9483 N.2     1  UNL1       -0.0230
      9 C         142.0550  137.6224  157.7563 C.2     1  UNL1        0.3133
     10 C         141.8530  138.8373  158.6125 C.2     1  UNL1        0.3703
     11 N         140.9465  139.9390  158.1494 N.2     1  UNL1       -0.0367
     12 C         140.2420  139.8257  156.8301 C.2     1  UNL1        0.2179
     13 C         140.4440  138.6107  155.9738 C.3     1  UNL1        0.1552
     14 C         141.3505  137.5091  156.4370 C.2     1  UNL1        0.2294
     15 N         141.7415  136.2020  155.8135 N.2     1  UNL1       -0.0343
     16 F         145.7607  131.6527  158.3896 F       1  UNL1       -0.2041
     17 C         144.8642  132.2426  157.3416 C.ar    1  UNL1        0.1426
     18 C         144.6078  131.4951  156.0667 C.ar    1  UNL1        0.0593
     19 C         143.7113  132.0850  155.0187 C.ar    1  UNL1        0.1426
     20 F         143.4548  131.3374  153.7438 F       1  UNL1       -0.2041
     21 C         143.0713  133.4225  155.2456 C.ar    1  UNL1        0.0375
     22 C         143.3277  134.1700  156.5205 C.ar    1  UNL1        0.0929
     23 C         144.2242  133.5801  157.5685 C.ar    1  UNL1        0.0375
     24 C         144.6714  139.2905  163.8901 C.3     1  UNL1        0.0724
     25 N         143.9432  139.8300  165.0853 N.3     1  UNL1       -0.2703
     26 C         143.7301  141.3078  165.2296 C.3     1  UNL1        0.0897
     27 C         143.0018  141.8473  166.4249 C.3     1  UNL1        0.0899
     28 N         142.4867  140.9091  167.4757 N.3     1  UNL1       -0.2631
     29 C         142.6997  139.4313  167.3314 C.3     1  UNL1        0.0899
     30 C         143.4279  138.8918  166.1362 C.3     1  UNL1        0.0897
     31 C         141.7585  141.4486  168.6709 C.3     1  UNL1        0.1767
     32 C         142.4211  142.4588  169.5599 C.3     1  UNL1        0.4121
     33 F         143.0838  143.4690  170.4489 F       1  UNL1       -0.1685
     34 F         143.5614  141.5111  169.7869 F       1  UNL1       -0.1685
     35 F         141.2808  143.4066  169.3330 F       1  UNL1       -0.1685
@<TRIPOS>BOND
     1    16    17    1
     2    17    18   ar
     3    18    19   ar
     4    19    20    1
     5    19    21   ar
     6    21    22   ar
     7    22     7    1
     8     7     8    2
     9     8     9    1
    10     9    10    2
    11    10     1    1
    12     1     2    1
    13     2     3    1
    14     3     4    1
    15     4    24    1
    16    24    25    1
    17    25    26    1
    18    26    27    1
    19    27    28    1
    20    28    31    1
    21    31    32    1
    22    32    33    1
    23    32    34    1
    24    32    35    1
    25    28    29    1
    26    29    30    1
    27     4     5    1
    28     5     6    1
    29    10    11    1
    30    11    12    2
    31    12    13    1
    32    13    14    1
    33    14    15    2
    34    22    23   ar
    35    23    17   ar
    36    15     7    1
    37    14     9    1
    38     6     1    1
    39    30    25    1
@<TRIPOS>MOLECULE
*****
 35 39 0 0 0
SMALL
GASTEIGER

@<TRIPOS>ATOM
      1 N         142.5139  138.9345  159.8817 N.pl3   1  UNL1       -0.1872
      2 C         143.5946  139.9595  160.0590 C.3     1  UNL1        0.2025
      3 C         144.3028  140.0827  161.3756 C.3     1  UNL1        0.0523
      4 C         143.9303  139.1809  162.5148 C.3     1  UNL1        0.0242
      5 C         142.8496  138.1558  162.3375 C.3     1  UNL1        0.0523
      6 C         142.1414  138.0327  161.0209 C.3     1  UNL1        0.2025
      7 C         142.6531  135.4778  156.7124 C.2     1  UNL1        0.3756
      8 N         142.8458  136.3621  157.9086 N.2     1  UNL1       -0.0230
      9 C         142.0118  137.5937  157.7137 C.2     1  UNL1        0.3133
     10 C         141.8057  138.8113  158.5651 C.2     1  UNL1        0.3703
     11 N         140.8916  139.9058  158.0999 N.2     1  UNL1       -0.0367
     12 C         140.1834  139.7825  156.7834 C.2     1  UNL1        0.2179
     13 C         140.3895  138.5649  155.9320 C.3     1  UNL1        0.1552
     14 C         141.3037  137.4704  156.3972 C.2     1  UNL1        0.2294
     15 N         141.7000  136.1628  155.7783 N.2     1  UNL1       -0.0343
     16 F         145.7113  131.6238  158.3839 F       1  UNL1       -0.2041
     17 C         144.8290  132.2159  157.3252 C.ar    1  UNL1        0.1426
     18 C         144.5934  131.4731  156.0435 C.ar    1  UNL1        0.0593
     19 C         143.7111  132.0652  154.9848 C.ar    1  UNL1        0.1426
     20 F         143.4755  131.3224  153.7031 F       1  UNL1       -0.2041
     21 C         143.0643  133.4001  155.2077 C.ar    1  UNL1        0.0375
     22 C         143.2999  134.1429  156.4894 C.ar    1  UNL1        0.0929
     23 C         144.1822  133.5508  157.5481 C.ar    1  UNL1        0.0375
     24 C         144.6384  139.3040  163.8314 C.3     1  UNL1        0.0724
     25 N         143.8741  139.6995  165.0599 N.3     1  UNL1       -0.2703
     26 C         143.4374  141.1224  165.2459 C.3     1  UNL1        0.0897
     27 C         142.6731  141.5179  166.4746 C.3     1  UNL1        0.0899
     28 N         142.3454  140.4904  167.5171 N.3     1  UNL1       -0.2631
     29 C         142.7821  139.0675  167.3311 C.3     1  UNL1        0.0899
     30 C         143.5464  138.6720  166.1025 C.3     1  UNL1        0.0897
     31 C         141.5811  140.8859  168.7456 C.3     1  UNL1        0.1767
     32 C         140.1681  140.4185  168.9328 C.3     1  UNL1        0.4121
     33 F         138.7552  139.9510  169.1199 F       1  UNL1       -0.1685
     34 F         140.6233  139.4712  170.0031 F       1  UNL1       -0.1685
     35 F         139.7130  141.3658  167.8625 F       1  UNL1       -0.1685
@<TRIPOS>BOND
     1    16    17    1
     2    17    18   ar
     3    18    19   ar
     4    19    20    1
     5    19    21   ar
     6    21    22   ar
     7    22     7    1
     8     7     8    2
     9     8     9    1
    10     9    10    2
    11    10     1    1
    12     1     2    1
    13     2     3    1
    14     3     4    1
    15     4    24    1
    16    24    25    1
    17    25    26    1
    18    26    27    1
    19    27    28    1
    20    28    31    1
    21    31    32    1
    22    32    33    1
    23    32    34    1
    24    32    35    1
    25    28    29    1
    26    29    30    1
    27     4     5    1
    28     5     6    1
    29    10    11    1
    30    11    12    2
    31    12    13    1
    32    13    14    1
    33    14    15    2
    34    22    23   ar
    35    23    17   ar
    36    15     7    1
    37    14     9    1
    38     6     1    1
    39    30    25    1
@<TRIPOS>MOLECULE
*****
 35 39 0 0 0
SMALL
GASTEIGER

@<TRIPOS>ATOM
      1 N         141.3391  138.5487  159.7207 N.pl3   1  UNL1       -0.1872
      2 C         139.8593  138.7672  159.8322 C.3     1  UNL1        0.2025
      3 C         139.1490  138.4508  161.1149 C.3     1  UNL1        0.0523
      4 C         139.9185  137.9159  162.2862 C.3     1  UNL1        0.0242
      5 C         141.3983  137.6974  162.1746 C.3     1  UNL1        0.0523
      6 C         142.1086  138.0138  160.8920 C.3     1  UNL1        0.2025
      7 C         143.3798  135.6667  156.6318 C.2     1  UNL1        0.3756
      8 N         142.6536  136.2698  157.7975 N.2     1  UNL1       -0.0230
      9 C         142.6279  137.7576  157.6081 C.2     1  UNL1        0.3133
     10 C         142.0495  138.8652  158.4380 C.2     1  UNL1        0.3703
     11 N         142.1813  140.2891  157.9852 N.2     1  UNL1       -0.0367
     12 C         142.8917  140.6055  156.7026 C.2     1  UNL1        0.2179
     13 C         143.4701  139.4979  155.8727 C.3     1  UNL1        0.1552
     14 C         143.3383  138.0740  156.3254 C.2     1  UNL1        0.2294
     15 N         143.8030  136.7818  155.7220 N.2     1  UNL1       -0.0343
     16 F         145.2160  131.1172  158.3438 F       1  UNL1       -0.2041
     17 C         144.5558  131.9304  157.2701 C.ar    1  UNL1        0.1426
     18 C         144.1535  131.2821  155.9787 C.ar    1  UNL1        0.0593
     19 C         143.4933  132.0953  154.9049 C.ar    1  UNL1        0.1426
     20 F         143.0909  131.4469  153.6135 F       1  UNL1       -0.2041
     21 C         143.2354  133.5568  155.1226 C.ar    1  UNL1        0.0375
     22 C         143.6377  134.2051  156.4140 C.ar    1  UNL1        0.0929
     23 C         144.2979  133.3919  157.4877 C.ar    1  UNL1        0.0375
     24 C         139.2082  137.5994  163.5688 C.3     1  UNL1        0.0724
     25 N         139.4772  138.4179  164.7967 N.3     1  UNL1       -0.2703
     26 C         138.3757  138.6772  165.7814 C.3     1  UNL1        0.0897
     27 C         138.6448  139.4958  167.0093 C.3     1  UNL1        0.0899
     28 N         140.0152  140.0549  167.2525 N.3     1  UNL1       -0.2631
     29 C         141.1167  139.7956  166.2678 C.3     1  UNL1        0.0899
     30 C         140.8477  138.9771  165.0400 C.3     1  UNL1        0.0897
     31 C         140.2843  140.8734  168.4804 C.3     1  UNL1        0.1767
     32 C         140.1023  140.2674  169.8404 C.3     1  UNL1        0.4121
     33 F         139.9203  139.6614  171.2004 F       1  UNL1       -0.1685
     34 F         138.8237  141.0331  170.0105 F       1  UNL1       -0.1685
     35 F         141.3808  139.5017  169.6703 F       1  UNL1       -0.1685
@<TRIPOS>BOND
     1    16    17    1
     2    17    18   ar
     3    18    19   ar
     4    19    20    1
     5    19    21   ar
     6    21    22   ar
     7    22     7    1
     8     7     8    2
     9     8     9    1
    10     9    10    2
    11    10     1    1
    12     1     2    1
    13     2     3    1
    14     3     4    1
    15     4    24    1
    16    24    25    1
    17    25    26    1
    18    26    27    1
    19    27    28    1
    20    28    31    1
    21    31    32    1
    22    32    33    1
    23    32    34    1
    24    32    35    1
    25    28    29    1
    26    29    30    1
    27     4     5    1
    28     5     6    1
    29    10    11    1
    30    11    12    2
    31    12    13    1
    32    13    14    1
    33    14    15    2
    34    22    23   ar
    35    23    17   ar
    36    15     7    1
    37    14     9    1
    38     6     1    1
    39    30    25    1
@<TRIPOS>MOLECULE
*****
 35 39 0 0 0
SMALL
GASTEIGER

@<TRIPOS>ATOM
      1 N         142.9898  139.4137  161.0519 N.pl3   1  UNL1       -0.1872
      2 C         144.0324  139.9173  162.0055 C.3     1  UNL1        0.2025
      3 C         143.9817  139.5192  163.4509 C.3     1  UNL1        0.0523
      4 C         142.8884  138.6176  163.9426 C.3     1  UNL1        0.0242
      5 C         141.8458  138.1140  162.9889 C.3     1  UNL1        0.0523
      6 C         141.8966  138.5120  161.5436 C.3     1  UNL1        0.2025
      7 C         142.8624  136.7408  157.1980 C.2     1  UNL1        0.3756
      8 N         142.8773  137.2667  158.6027 N.2     1  UNL1       -0.0230
      9 C         142.9835  138.7615  158.5370 C.2     1  UNL1        0.3133
     10 C         143.0405  139.8117  159.6065 C.2     1  UNL1        0.3703
     11 N         143.1483  141.2598  159.2307 N.2     1  UNL1       -0.0367
     12 C         143.1990  141.6578  157.7854 C.2     1  UNL1        0.2179
     13 C         143.1419  140.6076  156.7159 C.3     1  UNL1        0.1552
     14 C         143.0342  139.1595  157.0916 C.2     1  UNL1        0.2294
     15 N         142.9594  137.9107  156.2641 N.2     1  UNL1       -0.0343
     16 F         140.8874  133.0445  154.1261 F       1  UNL1       -0.2041
     17 C         141.7798  133.4503  155.2615 C.ar    1  UNL1        0.1426
     18 C         142.5770  132.4137  155.9963 C.ar    1  UNL1        0.0593
     19 C         143.4693  132.8195  157.1317 C.ar    1  UNL1        0.1426
     20 F         144.2665  131.7828  157.8665 F       1  UNL1       -0.2041
     21 C         143.5645  134.2618  157.5323 C.ar    1  UNL1        0.0375
     22 C         142.7673  135.2984  156.7975 C.ar    1  UNL1        0.0929
     23 C         141.8750  134.8926  155.6621 C.ar    1  UNL1        0.0375
     24 C         142.8377  138.2195  165.3879 C.3     1  UNL1        0.0724
     25 N         142.1168  139.0843  166.3791 N.3     1  UNL1       -0.2703
     26 C         140.7518  139.6163  166.0572 C.3     1  UNL1        0.0897
     27 C         140.0310  140.4812  167.0484 C.3     1  UNL1        0.0899
     28 N         140.6752  140.8140  168.3615 N.3     1  UNL1       -0.2631
     29 C         142.0402  140.2819  168.6834 C.3     1  UNL1        0.0899
     30 C         142.7610  139.4171  167.6922 C.3     1  UNL1        0.0897
     31 C         139.9543  141.6787  169.3527 C.3     1  UNL1        0.1767
     32 C         140.5079  143.0247  169.7160 C.3     1  UNL1        0.4121
     33 F         141.0615  144.3706  170.0793 F       1  UNL1       -0.1685
     34 F         140.8551  142.5130  171.0826 F       1  UNL1       -0.1685
     35 F         140.1608  143.5364  168.3494 F       1  UNL1       -0.1685
@<TRIPOS>BOND
     1    16    17    1
     2    17    18   ar
     3    18    19   ar
     4    19    20    1
     5    19    21   ar
     6    21    22   ar
     7    22     7    1
     8     7     8    2
     9     8     9    1
    10     9    10    2
    11    10     1    1
    12     1     2    1
    13     2     3    1
    14     3     4    1
    15     4    24    1
    16    24    25    1
    17    25    26    1
    18    26    27    1
    19    27    28    1
    20    28    31    1
    21    31    32    1
    22    32    33    1
    23    32    34    1
    24    32    35    1
    25    28    29    1
    26    29    30    1
    27     4     5    1
    28     5     6    1
    29    10    11    1
    30    11    12    2
    31    12    13    1
    32    13    14    1
    33    14    15    2
    34    22    23   ar
    35    23    17   ar
    36    15     7    1
    37    14     9    1
    38     6     1    1
    39    30    25    1
@<TRIPOS>MOLECULE
*****
 35 39 0 0 0
SMALL
GASTEIGER

@<TRIPOS>ATOM
      1 N         138.6310  143.2016  156.1494 N.pl3   1  UNL1       -0.1872
      2 C         137.4313  143.8677  155.5438 C.3     1  UNL1        0.2025
      3 C         136.3372  143.0375  154.9405 C.3     1  UNL1        0.0523
      4 C         136.4431  141.5413  154.9427 C.3     1  UNL1        0.0242
      5 C         137.6429  140.8752  155.5484 C.3     1  UNL1        0.0523
      6 C         138.7369  141.7054  156.1517 C.3     1  UNL1        0.2025
      7 C         139.6221  144.0393  160.6581 C.2     1  UNL1        0.3756
      8 N         139.0296  143.5688  159.3629 N.2     1  UNL1       -0.0230
      9 C         139.8411  144.1507  158.2435 C.2     1  UNL1        0.3133
     10 C         139.7251  144.0318  156.7527 C.2     1  UNL1        0.3703
     11 N         140.7031  144.7431  155.8653 N.2     1  UNL1       -0.0367
     12 C         141.7970  145.5732  156.4687 C.2     1  UNL1        0.2179
     13 C         141.9130  145.6921  157.9595 C.3     1  UNL1        0.1552
     14 C         140.9350  144.9808  158.8469 C.2     1  UNL1        0.2294
     15 N         140.7997  144.9120  160.3392 N.2     1  UNL1       -0.0343
     16 F         137.4429  140.6512  163.9402 F       1  UNL1       -0.2041
     17 C         138.0348  142.0032  163.6722 C.ar    1  UNL1        0.1426
     18 C         138.1290  143.0131  164.7773 C.ar    1  UNL1        0.0593
     19 C         138.7209  144.3651  164.5093 C.ar    1  UNL1        0.1426
     20 F         138.8151  145.3750  165.6144 F       1  UNL1       -0.2041
     21 C         139.2186  144.7071  163.1363 C.ar    1  UNL1        0.0375
     22 C         139.1244  143.6972  162.0312 C.ar    1  UNL1        0.0929
     23 C         138.5325  142.3453  162.2992 C.ar    1  UNL1        0.0375
     24 C         135.3491  140.7111  154.3394 C.3     1  UNL1        0.0724
     25 N         134.1165  140.4013  155.1361 N.3     1  UNL1       -0.2703
     26 C         134.0494  139.1477  155.9569 C.3     1  UNL1        0.0897
     27 C         132.8167  138.8379  156.7537 C.3     1  UNL1        0.0899
     28 N         131.6513  139.7819  156.7295 N.3     1  UNL1       -0.2631
     29 C         131.7184  141.0356  155.9086 C.3     1  UNL1        0.0899
     30 C         132.9510  141.3453  155.1120 C.3     1  UNL1        0.0897
     31 C         130.4187  139.4721  157.5262 C.3     1  UNL1        0.1767
     32 C         129.7779  138.1199  157.4212 C.3     1  UNL1        0.4121
     33 F         129.1372  136.7677  157.3163 F       1  UNL1       -0.1685
     34 F         129.6318  138.3041  155.9398 F       1  UNL1       -0.1685
     35 F         129.9241  137.9357  158.9027 F       1  UNL1       -0.1685
@<TRIPOS>BOND
     1    16    17    1
     2    17    18   ar
     3    18    19   ar
     4    19    20    1
     5    19    21   ar
     6    21    22   ar
     7    22     7    1
     8     7     8    2
     9     8     9    1
    10     9    10    2
    11    10     1    1
    12     1     2    1
    13     2     3    1
    14     3     4    1
    15     4    24    1
    16    24    25    1
    17    25    26    1
    18    26    27    1
    19    27    28    1
    20    28    31    1
    21    31    32    1
    22    32    33    1
    23    32    34    1
    24    32    35    1
    25    28    29    1
    26    29    30    1
    27     4     5    1
    28     5     6    1
    29    10    11    1
    30    11    12    2
    31    12    13    1
    32    13    14    1
    33    14    15    2
    34    22    23   ar
    35    23    17   ar
    36    15     7    1
    37    14     9    1
    38     6     1    1
    39    30    25    1
@<TRIPOS>MOLECULE
*****
 35 39 0 0 0
SMALL
GASTEIGER

@<TRIPOS>ATOM
      1 N         141.1091  140.6023  162.0467 N.pl3   1  UNL1       -0.1872
      2 C         140.3444  141.6982  161.3654 C.3     1  UNL1        0.2025
      3 C         141.0398  142.6072  160.3957 C.3     1  UNL1        0.0523
      4 C         142.4999  142.4201  160.1073 C.3     1  UNL1        0.0242
      5 C         143.2646  141.3241  160.7886 C.3     1  UNL1        0.0523
      6 C         142.5692  140.4153  161.7583 C.3     1  UNL1        0.2025
      7 C         140.8808  140.8204  166.7278 C.2     1  UNL1        0.3756
      8 N         141.1593  141.0581  165.2732 N.2     1  UNL1       -0.0230
      9 C         140.4846  139.9721  164.4886 C.2     1  UNL1        0.3133
     10 C         140.4137  139.6934  163.0164 C.2     1  UNL1        0.3703
     11 N         139.6474  138.5058  162.5140 N.2     1  UNL1       -0.0367
     12 C         138.9520  137.5970  163.4837 C.2     1  UNL1        0.2179
     13 C         139.0230  137.8757  164.9559 C.3     1  UNL1        0.1552
     14 C         139.7893  139.0632  165.4583 C.2     1  UNL1        0.2294
     15 N         140.0341  139.5875  166.8422 N.2     1  UNL1       -0.0343
     16 F         144.6741  142.2504  169.9784 F       1  UNL1       -0.2041
     17 C         143.2609  142.3819  169.4932 C.ar    1  UNL1        0.1426
     18 C         142.3310  143.3599  170.1480 C.ar    1  UNL1        0.0593
     19 C         140.9178  143.4914  169.6628 C.ar    1  UNL1        0.1426
     20 F         139.9879  144.4695  170.3177 F       1  UNL1       -0.2041
     21 C         140.4344  142.6449  168.5227 C.ar    1  UNL1        0.0375
     22 C         141.3642  141.6669  167.8679 C.ar    1  UNL1        0.0929
     23 C         142.7775  141.5354  168.3531 C.ar    1  UNL1        0.0375
     24 C         143.1953  143.3290  159.1376 C.3     1  UNL1        0.0724
     25 N         142.4181  143.9855  158.0354 N.3     1  UNL1       -0.2703
     26 C         142.0017  143.1894  156.8342 C.3     1  UNL1        0.0897
     27 C         141.2244  143.8459  155.7320 C.3     1  UNL1        0.0899
     28 N         140.8635  145.2985  155.8310 N.3     1  UNL1       -0.2631
     29 C         141.2800  146.0946  157.0322 C.3     1  UNL1        0.0899
     30 C         142.0572  145.4381  158.1344 C.3     1  UNL1        0.0897
     31 C         140.0863  145.9550  154.7288 C.3     1  UNL1        0.1767
     32 C         139.3186  147.2148  154.9998 C.3     1  UNL1        0.4121
     33 F         138.5510  148.4747  155.2709 F       1  UNL1       -0.1685
     34 F         138.2435  146.4148  155.6736 F       1  UNL1       -0.1685
     35 F         140.3938  148.0149  154.3261 F       1  UNL1       -0.1685
@<TRIPOS>BOND
     1    16    17    1
     2    17    18   ar
     3    18    19   ar
     4    19    20    1
     5    19    21   ar
     6    21    22   ar
     7    22     7    1
     8     7     8    2
     9     8     9    1
    10     9    10    2
    11    10     1    1
    12     1     2    1
    13     2     3    1
    14     3     4    1
    15     4    24    1
    16    24    25    1
    17    25    26    1
    18    26    27    1
    19    27    28    1
    20    28    31    1
    21    31    32    1
    22    32    33    1
    23    32    34    1
    24    32    35    1
    25    28    29    1
    26    29    30    1
    27     4     5    1
    28     5     6    1
    29    10    11    1
    30    11    12    2
    31    12    13    1
    32    13    14    1
    33    14    15    2
    34    22    23   ar
    35    23    17   ar
    36    15     7    1
    37    14     9    1
    38     6     1    1
    39    30    25    1
@<TRIPOS>MOLECULE
*****
 35 39 0 0 0
SMALL
GASTEIGER

@<TRIPOS>ATOM
      1 N         138.3949  139.9946  158.7740 N.pl3   1  UNL1       -0.1872
      2 C         137.4339  140.2750  159.8909 C.3     1  UNL1        0.2025
      3 C         137.5720  139.5526  161.1983 C.3     1  UNL1        0.0523
      4 C         138.6711  138.5499  161.3887 C.3     1  UNL1        0.0242
      5 C         139.6323  138.2695  160.2716 C.3     1  UNL1        0.0523
      6 C         139.4941  138.9918  158.9643 C.3     1  UNL1        0.2025
      7 C         134.5830  140.7247  156.1380 C.2     1  UNL1        0.3756
      8 N         135.5589  140.3150  157.2009 N.2     1  UNL1       -0.0230
      9 C         136.9145  140.8208  156.8053 C.2     1  UNL1        0.3133
     10 C         138.2569  140.7170  157.4666 C.2     1  UNL1        0.3703
     11 N         139.4611  141.3355  156.8206 N.2     1  UNL1       -0.0367
     12 C         139.3229  142.0578  155.5133 C.2     1  UNL1        0.2179
     13 C         137.9806  142.1616  154.8520 C.3     1  UNL1        0.1552
     14 C         136.7764  141.5432  155.4980 C.2     1  UNL1        0.2294
     15 N         135.3354  141.4838  155.0856 N.2     1  UNL1       -0.0343
     16 F         130.6434  137.4726  157.0887 F       1  UNL1       -0.2041
     17 C         131.1429  138.8015  156.6045 C.ar    1  UNL1        0.1426
     18 C         130.1722  139.8333  156.1115 C.ar    1  UNL1        0.0593
     19 C         130.6718  141.1623  155.6273 C.ar    1  UNL1        0.1426
     20 F         129.7010  142.1941  155.1342 F       1  UNL1       -0.2041
     21 C         132.1420  141.4594  155.6361 C.ar    1  UNL1        0.0375
     22 C         133.1127  140.4276  156.1292 C.ar    1  UNL1        0.0929
     23 C         132.6131  139.0987  156.6133 C.ar    1  UNL1        0.0375
     24 C         138.8093  137.8275  162.6960 C.3     1  UNL1        0.0724
     25 N         139.1513  138.5899  163.9416 N.3     1  UNL1       -0.2703
     26 C         138.3697  138.3587  165.2008 C.3     1  UNL1        0.0897
     27 C         138.7117  139.1212  166.4465 C.3     1  UNL1        0.0899
     28 N         139.8353  140.1149  166.4329 N.3     1  UNL1       -0.2631
     29 C         140.6169  140.3460  165.1737 C.3     1  UNL1        0.0899
     30 C         140.2749  139.5836  163.9280 C.3     1  UNL1        0.0897
     31 C         140.1773  140.8773  167.6786 C.3     1  UNL1        0.1767
     32 C         140.4651  140.1410  168.9534 C.3     1  UNL1        0.4121
     33 F         140.7528  139.4048  170.2282 F       1  UNL1       -0.1685
     34 F         141.6313  139.4623  168.2982 F       1  UNL1       -0.1685
     35 F         139.2989  140.8197  169.6086 F       1  UNL1       -0.1685
@<TRIPOS>BOND
     1    16    17    1
     2    17    18   ar
     3    18    19   ar
     4    19    20    1
     5    19    21   ar
     6    21    22   ar
     7    22     7    1
     8     7     8    2
     9     8     9    1
    10     9    10    2
    11    10     1    1
    12     1     2    1
    13     2     3    1
    14     3     4    1
    15     4    24    1
    16    24    25    1
    17    25    26    1
    18    26    27    1
    19    27    28    1
    20    28    31    1
    21    31    32    1
    22    32    33    1
    23    32    34    1
    24    32    35    1
    25    28    29    1
    26    29    30    1
    27     4     5    1
    28     5     6    1
    29    10    11    1
    30    11    12    2
    31    12    13    1
    32    13    14    1
    33    14    15    2
    34    22    23   ar
    35    23    17   ar
    36    15     7    1
    37    14     9    1
    38     6     1    1
    39    30    25    1
@<TRIPOS>MOLECULE
*****
 35 39 0 0 0
SMALL
GASTEIGER

@<TRIPOS>ATOM
      1 N         142.5998  139.7386  160.6659 N.pl3   1  UNL1       -0.1872
      2 C         143.1875  138.5894  161.4299 C.3     1  UNL1        0.2025
      3 C         142.5372  138.1209  162.6979 C.3     1  UNL1        0.0523
      4 C         141.2992  138.8017  163.2018 C.3     1  UNL1        0.0242
      5 C         140.7115  139.9510  162.4376 C.3     1  UNL1        0.0523
      6 C         141.3618  140.4194  161.1697 C.3     1  UNL1        0.2025
      7 C         143.2282  137.4768  156.6037 C.2     1  UNL1        0.3756
      8 N         142.8664  137.8796  158.0025 N.2     1  UNL1       -0.0230
      9 C         143.3332  139.2894  158.2142 C.2     1  UNL1        0.3133
     10 C         143.2500  140.2071  159.3979 C.2     1  UNL1        0.3703
     11 N         143.8172  141.5931  159.3135 N.2     1  UNL1       -0.0367
     12 C         144.4674  142.0615  158.0456 C.2     1  UNL1        0.2179
     13 C         144.5505  141.1438  156.8620 C.3     1  UNL1        0.1552
     14 C         143.9834  139.7578  156.9463 C.2     1  UNL1        0.2294
     15 N         143.9186  138.6375  155.9509 N.2     1  UNL1       -0.0343
     16 F         142.1159  134.6460  152.3906 F       1  UNL1       -0.2041
     17 C         142.3926  134.7313  153.8624 C.ar    1  UNL1        0.1426
     18 C         142.3899  133.4866  154.6995 C.ar    1  UNL1        0.0593
     19 C         142.6666  133.5719  156.1713 C.ar    1  UNL1        0.1426
     20 F         142.6639  132.3272  157.0083 F       1  UNL1       -0.2041
     21 C         142.9460  134.9020  156.8060 C.ar    1  UNL1        0.0375
     22 C         142.9488  136.1466  155.9689 C.ar    1  UNL1        0.0929
     23 C         142.6721  136.0613  154.4972 C.ar    1  UNL1        0.0375
     24 C         140.6489  138.3334  164.4697 C.3     1  UNL1        0.0724
     25 N         140.9548  139.0202  165.7676 N.3     1  UNL1       -0.2703
     26 C         142.3753  139.1458  166.2331 C.3     1  UNL1        0.0897
     27 C         142.6812  139.8328  167.5310 C.3     1  UNL1        0.0899
     28 N         141.5667  140.3941  168.3634 N.3     1  UNL1       -0.2631
     29 C         140.1463  140.2685  167.8979 C.3     1  UNL1        0.0899
     30 C         139.8404  139.5816  166.6001 C.3     1  UNL1        0.0897
     31 C         141.8727  141.0810  169.6613 C.3     1  UNL1        0.1767
     32 C         143.2078  141.7326  169.8685 C.3     1  UNL1        0.4121
     33 F         144.5429  142.3841  170.0757 F       1  UNL1       -0.1685
     34 F         143.6993  140.5019  170.5713 F       1  UNL1       -0.1685
     35 F         142.7163  142.9632  169.1657 F       1  UNL1       -0.1685
@<TRIPOS>BOND
     1    16    17    1
     2    17    18   ar
     3    18    19   ar
     4    19    20    1
     5    19    21   ar
     6    21    22   ar
     7    22     7    1
     8     7     8    2
     9     8     9    1
    10     9    10    2
    11    10     1    1
    12     1     2    1
    13     2     3    1
    14     3     4    1
    15     4    24    1
    16    24    25    1
    17    25    26    1
    18    26    27    1
    19    27    28    1
    20    28    31    1
    21    31    32    1
    22    32    33    1
    23    32    34    1
    24    32    35    1
    25    28    29    1
    26    29    30    1
    27     4     5    1
    28     5     6    1
    29    10    11    1
    30    11    12    2
    31    12    13    1
    32    13    14    1
    33    14    15    2
    34    22    23   ar
    35    23    17   ar
    36    15     7    1
    37    14     9    1
    38     6     1    1
    39    30    25    1
