@<TRIPOS>MOLECULE
*****
 34 38 0 0 0
SMALL
GASTEIGER

@<TRIPOS>ATOM
      1 C         138.7878  137.4198  155.2698 C.3     1  UNL1        0.1336
      2 N         139.9438  137.4044  156.2257 N.ar    1  UNL1       -0.2922
      3 C         139.9570  138.3354  157.4016 C.ar    1  UNL1        0.2783
      4 O         138.8143  139.2820  157.6218 O.2     1  UNL1       -0.2653
      5 C         141.1129  138.3200  158.3574 C.ar    1  UNL1        0.1370
      6 C         142.2556  137.3735  158.1373 C.ar    1  UNL1        0.1060
      7 N         143.2507  137.5838  159.2398 N.ar    1  UNL1       -0.2134
      8 C         142.7230  138.6603  160.1414 C.ar    1  UNL1        0.2015
      9 N         141.4018  139.1153  159.5960 N.ar    1  UNL1       -0.2915
     10 C         142.2424  136.4424  156.9613 C.ar    1  UNL1        0.0352
     11 C         143.3850  135.4959  156.7412 C.ar    1  UNL1        0.0037
     12 C         143.3717  134.5649  155.5653 C.ar    1  UNL1        0.0104
     13 C         142.2158  134.5803  154.6094 C.ar    1  UNL1        0.0699
     14 C         141.0732  135.5268  154.8295 C.ar    1  UNL1        0.0276
     15 C         141.0864  136.4578  156.0055 C.ar    1  UNL1        0.0647
     16 N         143.3981  139.1889  161.3722 N.pl3   1  UNL1       -0.2782
     17 C         143.2247  138.4832  162.6844 C.3     1  UNL1        0.0937
     18 C         143.8997  139.0118  163.9152 C.3     1  UNL1        0.0229
     19 C         144.7481  140.2461  163.8338 C.3     1  UNL1        0.0190
     20 C         144.9215  140.9519  162.5216 C.3     1  UNL1        0.0710
     21 N         145.7699  142.1862  162.4402 N.3     1  UNL1       -0.3208
     22 C         144.2465  140.4233  161.2908 C.3     1  UNL1        0.1089
     23 H         146.1479  142.4005  163.3630 H       1  UNL1        0.1189
     24 H         145.2016  142.9686  162.1155 H       1  UNL1        0.1189
     25 C         142.2026  133.6492  153.4334 C.1     1  UNL1        0.1005
     26 N         142.1894  132.7180  152.2575 N.1     1  UNL1       -0.1908
     27 C         140.5236  140.1789  160.1857 C.3     1  UNL1        0.1364
     28 C         140.1868  140.1483  161.6471 C.ar    1  UNL1        0.0111
     29 C         140.7542  141.1863  162.5694 C.ar    1  UNL1       -0.0016
     30 C         140.4174  141.1558  164.0308 C.ar    1  UNL1       -0.0002
     31 C         139.5133  140.0871  164.5698 C.ar    1  UNL1        0.0008
     32 C         138.9460  139.0491  163.6475 C.ar    1  UNL1        0.0111
     33 C         139.2827  139.0797  162.1861 C.ar    1  UNL1        0.0555
     34 CL        138.7154  138.0416  161.2638 Cl      1  UNL1       -0.0825
@<TRIPOS>BOND
     1     1     2    1
     2     2     3   ar
     3     3     4    2
     4     3     5   ar
     5     5     6   ar
     6     6     7   ar
     7     7     8   ar
     8     8    16    1
     9    16    17    1
    10    17    18    1
    11    18    19    1
    12    19    20    1
    13    20    21    1
    14    20    22    1
    15     8     9   ar
    16     9    27    1
    17    27    28    1
    18    28    29   ar
    19    29    30   ar
    20    30    31   ar
    21    31    32   ar
    22    32    33   ar
    23    33    34    1
    24     6    10   ar
    25    10    11   ar
    26    11    12   ar
    27    12    13   ar
    28    13    25    1
    29    25    26    3
    30    13    14   ar
    31    14    15   ar
    32    15     2   ar
    33     9     5   ar
    34    33    28   ar
    35    15    10   ar
    36    22    16    1
    37    21    23    1
    38    21    24    1
@<TRIPOS>MOLECULE
*****
 34 38 0 0 0
SMALL
GASTEIGER

@<TRIPOS>ATOM
      1 C         139.9713  145.7480  156.6498 C.3     1  UNL1        0.1336
      2 N         139.5035  144.4957  157.3302 N.ar    1  UNL1       -0.2922
      3 C         140.0540  144.1222  158.6746 C.ar    1  UNL1        0.2783
      4 O         141.0722  145.0010  159.3387 O.2     1  UNL1       -0.2653
      5 C         139.5862  142.8698  159.3549 C.ar    1  UNL1        0.1370
      6 C         138.5680  141.9911  158.6909 C.ar    1  UNL1        0.1060
      7 N         138.2987  140.8267  159.5974 N.ar    1  UNL1       -0.2134
      8 C         139.1506  140.9859  160.8218 C.ar    1  UNL1        0.2015
      9 N         139.9462  142.2486  160.6719 N.ar    1  UNL1       -0.2915
     10 C         138.0175  142.3646  157.3464 C.ar    1  UNL1        0.0352
     11 C         136.9993  141.4858  156.6824 C.ar    1  UNL1        0.0037
     12 C         136.4489  141.8594  155.3380 C.ar    1  UNL1        0.0104
     13 C         136.9167  143.1117  154.6576 C.ar    1  UNL1        0.0699
     14 C         137.9349  143.9905  155.3217 C.ar    1  UNL1        0.0276
     15 C         138.4853  143.6169  156.6661 C.ar    1  UNL1        0.0647
     16 N         139.1983  140.0472  161.9908 N.pl3   1  UNL1       -0.2782
     17 C         138.2960  140.2693  163.1683 C.3     1  UNL1        0.0937
     18 C         138.3437  139.3306  164.3373 C.3     1  UNL1        0.0229
     19 C         139.2937  138.1699  164.3288 C.3     1  UNL1        0.0190
     20 C         140.1959  137.9478  163.1513 C.3     1  UNL1        0.0710
     21 N         141.1459  136.7869  163.1428 N.3     1  UNL1       -0.3208
     22 C         140.1483  138.8864  161.9823 C.3     1  UNL1        0.1089
     23 H         141.0449  136.2586  164.0094 H       1  UNL1        0.1189
     24 H         142.1028  137.1312  163.0640 H       1  UNL1        0.1189
     25 C         136.3662  143.4852  153.3132 C.1     1  UNL1        0.1005
     26 N         135.8157  143.8587  151.9688 N.1     1  UNL1       -0.1908
     27 C         140.9294  142.7944  161.6648 C.3     1  UNL1        0.1364
     28 C         140.4672  143.1990  163.0332 C.ar    1  UNL1        0.0111
     29 C         139.5366  144.3640  163.1965 C.ar    1  UNL1       -0.0016
     30 C         139.0744  144.7686  164.5650 C.ar    1  UNL1       -0.0002
     31 C         139.5428  144.0081  165.7701 C.ar    1  UNL1        0.0008
     32 C         140.4735  142.8431  165.6067 C.ar    1  UNL1        0.0111
     33 C         140.9357  142.4385  164.2383 C.ar    1  UNL1        0.0555
     34 CL        141.8663  141.2735  164.0750 Cl      1  UNL1       -0.0825
@<TRIPOS>BOND
     1     1     2    1
     2     2     3   ar
     3     3     4    2
     4     3     5   ar
     5     5     6   ar
     6     6     7   ar
     7     7     8   ar
     8     8    16    1
     9    16    17    1
    10    17    18    1
    11    18    19    1
    12    19    20    1
    13    20    21    1
    14    20    22    1
    15     8     9   ar
    16     9    27    1
    17    27    28    1
    18    28    29   ar
    19    29    30   ar
    20    30    31   ar
    21    31    32   ar
    22    32    33   ar
    23    33    34    1
    24     6    10   ar
    25    10    11   ar
    26    11    12   ar
    27    12    13   ar
    28    13    25    1
    29    25    26    3
    30    13    14   ar
    31    14    15   ar
    32    15     2   ar
    33     9     5   ar
    34    33    28   ar
    35    15    10   ar
    36    22    16    1
    37    21    23    1
    38    21    24    1
@<TRIPOS>MOLECULE
*****
 34 38 0 0 0
SMALL
GASTEIGER

@<TRIPOS>ATOM
      1 C         137.5921  142.7045  163.0067 C.3     1  UNL1        0.1336
      2 N         138.2042  141.5103  162.3366 N.ar    1  UNL1       -0.2922
      3 C         138.5543  141.5655  160.8791 C.ar    1  UNL1        0.2783
      4 O         138.2922  142.8150  160.0916 O.2     1  UNL1       -0.2653
      5 C         139.1664  140.3712  160.2090 C.ar    1  UNL1        0.1370
      6 C         139.4285  139.1217  160.9964 C.ar    1  UNL1        0.1060
      7 N         140.0378  138.1102  160.0716 N.ar    1  UNL1       -0.2134
      8 C         140.1523  138.7345  158.7125 C.ar    1  UNL1        0.2015
      9 N         139.6138  140.1319  158.7974 N.ar    1  UNL1       -0.2915
     10 C         139.0784  139.0665  162.4540 C.ar    1  UNL1        0.0352
     11 C         139.3405  137.8170  163.2414 C.ar    1  UNL1        0.0037
     12 C         138.9904  137.7618  164.6989 C.ar    1  UNL1        0.0104
     13 C         138.3783  138.9560  165.3690 C.ar    1  UNL1        0.0699
     14 C         138.1162  140.2055  164.5816 C.ar    1  UNL1        0.0276
     15 C         138.4663  140.2607  163.1241 C.ar    1  UNL1        0.0647
     16 N         140.7079  138.0768  157.4841 N.pl3   1  UNL1       -0.2782
     17 C         139.7831  137.4269  156.4980 C.3     1  UNL1        0.0937
     18 C         140.3386  136.7692  155.2696 C.3     1  UNL1        0.0229
     19 C         141.8189  136.7616  155.0274 C.3     1  UNL1        0.0190
     20 C         142.7437  137.4115  156.0134 C.3     1  UNL1        0.0710
     21 N         144.2240  137.4038  155.7711 N.3     1  UNL1       -0.3208
     22 C         142.1882  138.0691  157.2418 C.3     1  UNL1        0.1089
     23 H         144.4228  136.9180  154.8965 H       1  UNL1        0.1189
     24 H         144.6919  136.9244  156.5403 H       1  UNL1        0.1189
     25 C         138.0282  138.9008  166.8266 C.1     1  UNL1        0.1005
     26 N         137.6781  138.8455  168.2841 N.1     1  UNL1       -0.1908
     27 C         139.5362  141.1171  157.6689 C.3     1  UNL1        0.1364
     28 C         138.4407  141.0059  156.6503 C.ar    1  UNL1        0.0111
     29 C         137.0090  141.1658  157.0681 C.ar    1  UNL1       -0.0016
     30 C         135.9135  141.0547  156.0495 C.ar    1  UNL1       -0.0002
     31 C         136.2498  140.7837  154.6131 C.ar    1  UNL1        0.0008
     32 C         137.6815  140.6238  154.1952 C.ar    1  UNL1        0.0111
     33 C         138.7770  140.7349  155.2138 C.ar    1  UNL1        0.0555
     34 CL        140.2087  140.5750  154.7960 Cl      1  UNL1       -0.0825
@<TRIPOS>BOND
     1     1     2    1
     2     2     3   ar
     3     3     4    2
     4     3     5   ar
     5     5     6   ar
     6     6     7   ar
     7     7     8   ar
     8     8    16    1
     9    16    17    1
    10    17    18    1
    11    18    19    1
    12    19    20    1
    13    20    21    1
    14    20    22    1
    15     8     9   ar
    16     9    27    1
    17    27    28    1
    18    28    29   ar
    19    29    30   ar
    20    30    31   ar
    21    31    32   ar
    22    32    33   ar
    23    33    34    1
    24     6    10   ar
    25    10    11   ar
    26    11    12   ar
    27    12    13   ar
    28    13    25    1
    29    25    26    3
    30    13    14   ar
    31    14    15   ar
    32    15     2   ar
    33     9     5   ar
    34    33    28   ar
    35    15    10   ar
    36    22    16    1
    37    21    23    1
    38    21    24    1
@<TRIPOS>MOLECULE
*****
 34 38 0 0 0
SMALL
GASTEIGER

@<TRIPOS>ATOM
      1 C         140.4648  141.5718  170.3229 C.3     1  UNL1        0.1336
      2 N         140.1403  140.8805  169.0319 N.ar    1  UNL1       -0.2922
      3 C         140.9978  141.1089  167.8225 C.ar    1  UNL1        0.2783
      4 O         142.1798  142.0288  167.9042 O.2     1  UNL1       -0.2653
      5 C         140.6733  140.4176  166.5315 C.ar    1  UNL1        0.1370
      6 C         139.4912  139.4977  166.4498 C.ar    1  UNL1        0.1060
      7 N         139.4186  138.9593  165.0517 N.ar    1  UNL1       -0.2134
      8 C         140.5558  139.5464  164.2693 C.ar    1  UNL1        0.2015
      9 N         141.3312  140.4476  165.1839 N.ar    1  UNL1       -0.2915
     10 C         138.6337  139.2692  167.6592 C.ar    1  UNL1        0.0352
     11 C         137.4517  138.3494  167.5775 C.ar    1  UNL1        0.0037
     12 C         136.5942  138.1209  168.7868 C.ar    1  UNL1        0.0104
     13 C         136.9187  138.8123  170.0778 C.ar    1  UNL1        0.0699
     14 C         138.1007  139.7321  170.1595 C.ar    1  UNL1        0.0276
     15 C         138.9582  139.9606  168.9502 C.ar    1  UNL1        0.0647
     16 N         140.8635  139.2791  162.8257 N.pl3   1  UNL1       -0.2782
     17 C         140.1384  140.0349  161.7519 C.3     1  UNL1        0.0937
     18 C         140.4461  139.7677  160.3083 C.3     1  UNL1        0.0229
     19 C         141.4788  138.7447  159.9386 C.3     1  UNL1        0.0190
     20 C         142.2039  137.9889  161.0124 C.3     1  UNL1        0.0710
     21 N         143.2367  136.9658  160.6425 N.3     1  UNL1       -0.3208
     22 C         141.8963  138.2561  162.4559 C.3     1  UNL1        0.1089
     23 H         143.3163  136.9148  159.6269 H       1  UNL1        0.1189
     24 H         142.9591  136.0549  161.0080 H       1  UNL1        0.1189
     25 C         136.0611  138.5838  171.2871 C.1     1  UNL1        0.1005
     26 N         135.2036  138.3553  172.4964 N.1     1  UNL1       -0.1908
     27 C         142.5505  141.2399  164.8155 C.3     1  UNL1        0.1364
     28 C         142.4213  142.6891  164.4505 C.ar    1  UNL1        0.0111
     29 C         141.0707  143.2701  164.1531 C.ar    1  UNL1       -0.0016
     30 C         140.9415  144.7193  163.7881 C.ar    1  UNL1       -0.0002
     31 C         142.1629  145.5874  163.7206 C.ar    1  UNL1        0.0008
     32 C         143.5134  145.0064  164.0181 C.ar    1  UNL1        0.0111
     33 C         143.6426  143.5572  164.3830 C.ar    1  UNL1        0.0555
     34 CL        144.9932  142.9763  164.6805 Cl      1  UNL1       -0.0825
@<TRIPOS>BOND
     1     1     2    1
     2     2     3   ar
     3     3     4    2
     4     3     5   ar
     5     5     6   ar
     6     6     7   ar
     7     7     8   ar
     8     8    16    1
     9    16    17    1
    10    17    18    1
    11    18    19    1
    12    19    20    1
    13    20    21    1
    14    20    22    1
    15     8     9   ar
    16     9    27    1
    17    27    28    1
    18    28    29   ar
    19    29    30   ar
    20    30    31   ar
    21    31    32   ar
    22    32    33   ar
    23    33    34    1
    24     6    10   ar
    25    10    11   ar
    26    11    12   ar
    27    12    13   ar
    28    13    25    1
    29    25    26    3
    30    13    14   ar
    31    14    15   ar
    32    15     2   ar
    33     9     5   ar
    34    33    28   ar
    35    15    10   ar
    36    22    16    1
    37    21    23    1
    38    21    24    1
@<TRIPOS>MOLECULE
*****
 34 38 0 0 0
SMALL
GASTEIGER

@<TRIPOS>ATOM
      1 C         139.6870  137.9244  156.4074 C.3     1  UNL1        0.1336
      2 N         139.2643  139.1265  157.1989 N.ar    1  UNL1       -0.2922
      3 C         139.8425  139.3684  158.5616 C.ar    1  UNL1        0.2783
      4 O         140.8433  138.4081  159.1330 O.2     1  UNL1       -0.2653
      5 C         139.4199  140.5704  159.3531 C.ar    1  UNL1        0.1370
      6 C         138.4191  141.5306  158.7817 C.ar    1  UNL1        0.1060
      7 N         138.1952  142.6202  159.7880 N.ar    1  UNL1       -0.2134
      8 C         139.0576  142.3334  160.9813 C.ar    1  UNL1        0.2015
      9 N         139.8145  141.0666  160.7125 N.ar    1  UNL1       -0.2915
     10 C         137.8409  141.2888  157.4189 C.ar    1  UNL1        0.0352
     11 C         136.8402  142.2490  156.8476 C.ar    1  UNL1        0.0037
     12 C         136.2620  142.0071  155.4848 C.ar    1  UNL1        0.0104
     13 C         136.6847  140.8050  154.6933 C.ar    1  UNL1        0.0699
     14 C         137.6854  139.8448  155.2647 C.ar    1  UNL1        0.0276
     15 C         138.2635  140.0867  156.6275 C.ar    1  UNL1        0.0647
     16 N         139.1474  143.1672  162.2251 N.pl3   1  UNL1       -0.2782
     17 C         138.0725  143.0773  163.2674 C.3     1  UNL1        0.0937
     18 C         138.1622  143.9110  164.5111 C.3     1  UNL1        0.0229
     19 C         139.3269  144.8345  164.7126 C.3     1  UNL1        0.0190
     20 C         140.4018  144.9243  163.6703 C.3     1  UNL1        0.0710
     21 N         141.5666  145.8479  163.8717 N.3     1  UNL1       -0.3208
     22 C         140.3121  144.0906  162.4265 C.3     1  UNL1        0.1089
     23 H         141.4659  146.3325  164.7636 H       1  UNL1        0.1189
     24 H         141.5938  146.5309  163.1147 H       1  UNL1        0.1189
     25 C         136.1065  140.5631  153.3305 C.1     1  UNL1        0.1005
     26 N         135.5283  140.3213  151.9677 N.1     1  UNL1       -0.1908
     27 C         140.7941  140.4110  161.6403 C.3     1  UNL1        0.1364
     28 C         140.3001  139.5839  162.7900 C.ar    1  UNL1        0.0111
     29 C         139.5529  138.3094  162.5306 C.ar    1  UNL1       -0.0016
     30 C         139.0589  137.4823  163.6804 C.ar    1  UNL1       -0.0002
     31 C         139.3121  137.9298  165.0895 C.ar    1  UNL1        0.0008
     32 C         140.0593  139.2043  165.3489 C.ar    1  UNL1        0.0111
     33 C         140.5534  140.0314  164.1991 C.ar    1  UNL1        0.0555
     34 CL        141.3006  141.3059  164.4585 Cl      1  UNL1       -0.0825
@<TRIPOS>BOND
     1     1     2    1
     2     2     3   ar
     3     3     4    2
     4     3     5   ar
     5     5     6   ar
     6     6     7   ar
     7     7     8   ar
     8     8    16    1
     9    16    17    1
    10    17    18    1
    11    18    19    1
    12    19    20    1
    13    20    21    1
    14    20    22    1
    15     8     9   ar
    16     9    27    1
    17    27    28    1
    18    28    29   ar
    19    29    30   ar
    20    30    31   ar
    21    31    32   ar
    22    32    33   ar
    23    33    34    1
    24     6    10   ar
    25    10    11   ar
    26    11    12   ar
    27    12    13   ar
    28    13    25    1
    29    25    26    3
    30    13    14   ar
    31    14    15   ar
    32    15     2   ar
    33     9     5   ar
    34    33    28   ar
    35    15    10   ar
    36    22    16    1
    37    21    23    1
    38    21    24    1
@<TRIPOS>MOLECULE
*****
 34 38 0 0 0
SMALL
GASTEIGER

@<TRIPOS>ATOM
      1 C         143.2813  138.6415  166.7422 C.3     1  UNL1        0.1336
      2 N         142.6266  139.7296  165.9438 N.ar    1  UNL1       -0.2922
      3 C         142.7346  139.7308  164.4477 C.ar    1  UNL1        0.2783
      4 O         143.4972  138.6438  163.7500 O.2     1  UNL1       -0.2653
      5 C         142.0799  140.8189  163.6494 C.ar    1  UNL1        0.1370
      6 C         141.3172  141.9058  164.3470 C.ar    1  UNL1        0.1060
      7 N         140.7813  142.8398  163.3028 N.ar    1  UNL1       -0.2134
      8 C         141.2128  142.3301  161.9597 C.ar    1  UNL1        0.2015
      9 N         142.0153  141.0811  162.1739 N.ar    1  UNL1       -0.2915
     10 C         141.2092  141.9048  165.8432 C.ar    1  UNL1        0.0352
     11 C         140.4466  142.9917  166.5409 C.ar    1  UNL1        0.0037
     12 C         140.3386  142.9906  168.0370 C.ar    1  UNL1        0.0104
     13 C         140.9933  141.9025  168.8354 C.ar    1  UNL1        0.0699
     14 C         141.7559  140.8155  168.1377 C.ar    1  UNL1        0.0276
     15 C         141.8639  140.8167  166.6416 C.ar    1  UNL1        0.0647
     16 N         140.8971  142.9590  160.6349 N.pl3   1  UNL1       -0.2782
     17 C         139.5871  142.6736  159.9624 C.3     1  UNL1        0.0937
     18 C         139.2714  143.3024  158.6377 C.3     1  UNL1        0.0229
     19 C         140.2657  144.2167  157.9856 C.3     1  UNL1        0.0190
     20 C         141.5758  144.5021  158.6581 C.3     1  UNL1        0.0710
     21 N         142.5702  145.4164  158.0059 N.3     1  UNL1       -0.3208
     22 C         141.8915  143.8732  159.9828 C.3     1  UNL1        0.1089
     23 H         142.1938  145.7507  157.1188 H       1  UNL1        0.1189
     24 H         143.4388  144.9091  157.8370 H       1  UNL1        0.1189
     25 C         140.8853  141.9014  170.3315 C.1     1  UNL1        0.1005
     26 N         140.7773  141.9003  171.8276 N.1     1  UNL1       -0.1908
     27 C         142.6432  140.2416  161.1009 C.3     1  UNL1        0.1364
     28 C         141.8492  139.8590  159.8871 C.ar    1  UNL1        0.0111
     29 C         142.1905  140.4492  158.5510 C.ar    1  UNL1       -0.0016
     30 C         141.3965  140.0666  157.3372 C.ar    1  UNL1       -0.0002
     31 C         140.2613  139.0939  157.4596 C.ar    1  UNL1        0.0008
     32 C         139.9200  138.5037  158.7958 C.ar    1  UNL1        0.0111
     33 C         140.7140  138.8863  160.0095 C.ar    1  UNL1        0.0555
     34 CL        140.3727  138.2961  161.3457 Cl      1  UNL1       -0.0825
@<TRIPOS>BOND
     1     1     2    1
     2     2     3   ar
     3     3     4    2
     4     3     5   ar
     5     5     6   ar
     6     6     7   ar
     7     7     8   ar
     8     8    16    1
     9    16    17    1
    10    17    18    1
    11    18    19    1
    12    19    20    1
    13    20    21    1
    14    20    22    1
    15     8     9   ar
    16     9    27    1
    17    27    28    1
    18    28    29   ar
    19    29    30   ar
    20    30    31   ar
    21    31    32   ar
    22    32    33   ar
    23    33    34    1
    24     6    10   ar
    25    10    11   ar
    26    11    12   ar
    27    12    13   ar
    28    13    25    1
    29    25    26    3
    30    13    14   ar
    31    14    15   ar
    32    15     2   ar
    33     9     5   ar
    34    33    28   ar
    35    15    10   ar
    36    22    16    1
    37    21    23    1
    38    21    24    1
@<TRIPOS>MOLECULE
*****
 34 38 0 0 0
SMALL
GASTEIGER

@<TRIPOS>ATOM
      1 C         140.1413  143.2136  165.5585 C.3     1  UNL1        0.1336
      2 N         140.3136  142.3435  164.3488 N.ar    1  UNL1       -0.2922
      3 C         141.0265  142.8726  163.1398 C.ar    1  UNL1        0.2783
      4 O         141.5672  144.2718  163.1404 O.2     1  UNL1       -0.2653
      5 C         141.1988  142.0025  161.9302 C.ar    1  UNL1        0.1370
      6 C         140.6582  140.6034  161.9295 C.ar    1  UNL1        0.1060
      7 N         140.9771  139.9837  160.6013 N.ar    1  UNL1       -0.2134
      8 C         141.7149  141.0000  159.7810 C.ar    1  UNL1        0.2015
      9 N         141.8519  142.2476  160.6023 N.ar    1  UNL1       -0.2915
     10 C         139.9452  140.0742  163.1386 C.ar    1  UNL1        0.0352
     11 C         139.4046  138.6751  163.1379 C.ar    1  UNL1        0.0037
     12 C         138.6917  138.1460  164.3470 C.ar    1  UNL1        0.0104
     13 C         138.5194  139.0161  165.5566 C.ar    1  UNL1        0.0699
     14 C         139.0600  140.4152  165.5573 C.ar    1  UNL1        0.0276
     15 C         139.7729  140.9443  164.3482 C.ar    1  UNL1        0.0647
     16 N         142.2260  140.8031  158.3845 N.pl3   1  UNL1       -0.2782
     17 C         141.2742  140.8379  157.2256 C.3     1  UNL1        0.0937
     18 C         141.7853  140.6411  155.8292 C.3     1  UNL1        0.0229
     19 C         143.2480  140.4093  155.5916 C.3     1  UNL1        0.0190
     20 C         144.1998  140.3745  156.7504 C.3     1  UNL1        0.0710
     21 N         145.6627  140.1428  156.5128 N.3     1  UNL1       -0.3208
     22 C         143.6888  140.5714  158.1469 C.3     1  UNL1        0.1089
     23 H         145.8311  140.0303  155.5131 H       1  UNL1        0.1189
     24 H         145.9575  139.2991  157.0043 H       1  UNL1        0.1189
     25 C         137.8064  138.4869  166.7657 C.1     1  UNL1        0.1005
     26 N         137.0935  137.9578  167.9747 N.1     1  UNL1       -0.1908
     27 C         142.5241  143.5176  160.1713 C.3     1  UNL1        0.1364
     28 C         142.0144  144.2678  158.9766 C.ar    1  UNL1        0.0111
     29 C         142.7099  144.1342  157.6543 C.ar    1  UNL1       -0.0016
     30 C         142.2003  144.8844  156.4596 C.ar    1  UNL1       -0.0002
     31 C         140.9951  145.7683  156.5872 C.ar    1  UNL1        0.0008
     32 C         140.2996  145.9020  157.9095 C.ar    1  UNL1        0.0111
     33 C         140.8093  145.1517  159.1042 C.ar    1  UNL1        0.0555
     34 CL        140.1138  145.2854  160.4265 Cl      1  UNL1       -0.0825
@<TRIPOS>BOND
     1     1     2    1
     2     2     3   ar
     3     3     4    2
     4     3     5   ar
     5     5     6   ar
     6     6     7   ar
     7     7     8   ar
     8     8    16    1
     9    16    17    1
    10    17    18    1
    11    18    19    1
    12    19    20    1
    13    20    21    1
    14    20    22    1
    15     8     9   ar
    16     9    27    1
    17    27    28    1
    18    28    29   ar
    19    29    30   ar
    20    30    31   ar
    21    31    32   ar
    22    32    33   ar
    23    33    34    1
    24     6    10   ar
    25    10    11   ar
    26    11    12   ar
    27    12    13   ar
    28    13    25    1
    29    25    26    3
    30    13    14   ar
    31    14    15   ar
    32    15     2   ar
    33     9     5   ar
    34    33    28   ar
    35    15    10   ar
    36    22    16    1
    37    21    23    1
    38    21    24    1
@<TRIPOS>MOLECULE
*****
 34 38 0 0 0
SMALL
GASTEIGER

@<TRIPOS>ATOM
      1 C         138.1918  138.3779  166.2160 C.3     1  UNL1        0.1336
      2 N         138.8776  139.5693  165.6158 N.ar    1  UNL1       -0.2922
      3 C         138.8391  139.7885  164.1325 C.ar    1  UNL1        0.2783
      4 O         138.1148  138.8162  163.2492 O.2     1  UNL1       -0.2653
      5 C         139.5249  140.9799  163.5323 C.ar    1  UNL1        0.1370
      6 C         140.2492  141.9521  164.4155 C.ar    1  UNL1        0.1060
      7 N         140.8284  143.0271  163.5444 N.ar    1  UNL1       -0.2134
      8 C         140.4621  142.7193  162.1228 C.ar    1  UNL1        0.2015
      9 N         139.6565  141.4540  162.1153 N.ar    1  UNL1       -0.2915
     10 C         140.2877  141.7330  165.8989 C.ar    1  UNL1        0.0352
     11 C         141.0120  142.7052  166.7821 C.ar    1  UNL1        0.0037
     12 C         141.0506  142.4860  168.2655 C.ar    1  UNL1        0.0104
     13 C         140.3648  141.2946  168.8657 C.ar    1  UNL1        0.0699
     14 C         139.6405  140.3224  167.9825 C.ar    1  UNL1        0.0276
     15 C         139.6019  140.5416  166.4991 C.ar    1  UNL1        0.0647
     16 N         140.8358  143.5337  160.9198 N.pl3   1  UNL1       -0.2782
     17 C         139.9772  144.6901  160.5007 C.3     1  UNL1        0.0937
     18 C         140.3508  145.5045  159.2978 C.3     1  UNL1        0.0229
     19 C         141.5831  145.1626  158.5140 C.3     1  UNL1        0.0190
     20 C         142.4418  144.0062  158.9330 C.3     1  UNL1        0.0710
     21 N         143.6741  143.6644  158.1491 N.3     1  UNL1       -0.3208
     22 C         142.0681  143.1918  160.1359 C.3     1  UNL1        0.1089
     23 H         143.7739  144.3163  157.3710 H       1  UNL1        0.1189
     24 H         143.5945  142.7137  157.7880 H       1  UNL1        0.1189
     25 C         140.4033  141.0755  170.3491 C.1     1  UNL1        0.1005
     26 N         140.4418  140.8563  171.8325 N.1     1  UNL1       -0.1908
     27 C         139.0830  140.7810  160.9035 C.3     1  UNL1        0.1364
     28 C         139.9962  140.1702  159.8822 C.ar    1  UNL1        0.0111
     29 C         140.8500  138.9925  160.2483 C.ar    1  UNL1       -0.0016
     30 C         141.7632  138.3818  159.2270 C.ar    1  UNL1       -0.0002
     31 C         141.8225  138.9487  157.8396 C.ar    1  UNL1        0.0008
     32 C         140.9687  140.1264  157.4734 C.ar    1  UNL1        0.0111
     33 C         140.0555  140.7372  158.4948 C.ar    1  UNL1        0.0555
     34 CL        139.2017  141.9148  158.1286 Cl      1  UNL1       -0.0825
@<TRIPOS>BOND
     1     1     2    1
     2     2     3   ar
     3     3     4    2
     4     3     5   ar
     5     5     6   ar
     6     6     7   ar
     7     7     8   ar
     8     8    16    1
     9    16    17    1
    10    17    18    1
    11    18    19    1
    12    19    20    1
    13    20    21    1
    14    20    22    1
    15     8     9   ar
    16     9    27    1
    17    27    28    1
    18    28    29   ar
    19    29    30   ar
    20    30    31   ar
    21    31    32   ar
    22    32    33   ar
    23    33    34    1
    24     6    10   ar
    25    10    11   ar
    26    11    12   ar
    27    12    13   ar
    28    13    25    1
    29    25    26    3
    30    13    14   ar
    31    14    15   ar
    32    15     2   ar
    33     9     5   ar
    34    33    28   ar
    35    15    10   ar
    36    22    16    1
    37    21    23    1
    38    21    24    1
@<TRIPOS>MOLECULE
*****
 34 38 0 0 0
SMALL
GASTEIGER

@<TRIPOS>ATOM
      1 C         143.1176  138.7532  166.7507 C.3     1  UNL1        0.1336
      2 N         142.4633  139.8456  165.9580 N.ar    1  UNL1       -0.2922
      3 C         142.5584  139.8462  164.4611 C.ar    1  UNL1        0.2783
      4 O         143.3080  138.7543  163.7568 O.2     1  UNL1       -0.2653
      5 C         141.9041  140.9386  163.6684 C.ar    1  UNL1        0.1370
      6 C         141.1545  142.0305  164.3726 C.ar    1  UNL1        0.1060
      7 N         140.6158  142.9680  163.3331 N.ar    1  UNL1       -0.2134
      8 C         141.0325  142.4556  161.9863 C.ar    1  UNL1        0.2015
      9 N         141.8286  141.2014  162.1935 N.ar    1  UNL1       -0.2915
     10 C         141.0593  142.0299  165.8696 C.ar    1  UNL1        0.0352
     11 C         140.3097  143.1217  166.5739 C.ar    1  UNL1        0.0037
     12 C         140.2146  143.1211  168.0708 C.ar    1  UNL1        0.0104
     13 C         140.8689  142.0287  168.8635 C.ar    1  UNL1        0.0699
     14 C         141.6185  140.9369  168.1593 C.ar    1  UNL1        0.0276
     15 C         141.7137  140.9375  166.6623 C.ar    1  UNL1        0.0647
     16 N         140.7096  143.0867  160.6643 N.pl3   1  UNL1       -0.2782
     17 C         139.5209  142.6169  159.8793 C.3     1  UNL1        0.0937
     18 C         139.1980  143.2479  158.5574 C.3     1  UNL1        0.0229
     19 C         140.0638  144.3488  158.0205 C.3     1  UNL1        0.0190
     20 C         141.2525  144.8186  158.8054 C.3     1  UNL1        0.0710
     21 N         142.1184  145.9196  158.2684 N.3     1  UNL1       -0.3208
     22 C         141.5754  144.1876  160.1273 C.3     1  UNL1        0.1089
     23 H         141.7551  146.2288  157.3668 H       1  UNL1        0.1189
     24 H         143.0716  145.5760  158.1512 H       1  UNL1        0.1189
     25 C         140.7737  142.0282  170.3606 C.1     1  UNL1        0.1005
     26 N         140.6786  142.0276  171.8575 N.1     1  UNL1       -0.1908
     27 C         142.4418  140.3579  161.1152 C.3     1  UNL1        0.1364
     28 C         142.9954  141.0052  159.8804 C.ar    1  UNL1        0.0111
     29 C         142.3545  140.7505  158.5484 C.ar    1  UNL1       -0.0016
     30 C         142.9082  141.3977  157.3136 C.ar    1  UNL1       -0.0002
     31 C         144.1027  142.2996  157.4110 C.ar    1  UNL1        0.0008
     32 C         144.7437  142.5543  158.7431 C.ar    1  UNL1        0.0111
     33 C         144.1900  141.9070  159.9778 C.ar    1  UNL1        0.0555
     34 CL        144.8310  142.1617  161.3098 Cl      1  UNL1       -0.0825
@<TRIPOS>BOND
     1     1     2    1
     2     2     3   ar
     3     3     4    2
     4     3     5   ar
     5     5     6   ar
     6     6     7   ar
     7     7     8   ar
     8     8    16    1
     9    16    17    1
    10    17    18    1
    11    18    19    1
    12    19    20    1
    13    20    21    1
    14    20    22    1
    15     8     9   ar
    16     9    27    1
    17    27    28    1
    18    28    29   ar
    19    29    30   ar
    20    30    31   ar
    21    31    32   ar
    22    32    33   ar
    23    33    34    1
    24     6    10   ar
    25    10    11   ar
    26    11    12   ar
    27    12    13   ar
    28    13    25    1
    29    25    26    3
    30    13    14   ar
    31    14    15   ar
    32    15     2   ar
    33     9     5   ar
    34    33    28   ar
    35    15    10   ar
    36    22    16    1
    37    21    23    1
    38    21    24    1
