@<TRIPOS>MOLECULE
*****
 32 36 0 0 0
SMALL
GASTEIGER

@<TRIPOS>ATOM
      1 C         141.2983  142.3919  163.6583 C.ar    1  UNL1        0.1065
      2 N         142.6401  142.0595  163.0760 N.ar    1  UNL1       -0.1679
      3 N         142.8902  142.9903  161.9266 N.ar    1  UNL1       -0.2340
      4 C         141.7029  143.8980  161.7984 C.ar    1  UNL1        0.1653
      5 N         141.3905  145.0134  160.8455 N.ar    1  UNL1       -0.2050
      6 C         140.0942  145.7592  160.9628 C.ar    1  UNL1        0.2014
      7 N         139.1104  145.3894  162.0331 N.ar    1  UNL1       -0.2093
      8 C         139.4228  144.2739  162.9860 C.ar    1  UNL1        0.1316
      9 N         138.4390  143.9040  164.0562 N.pl3   1  UNL1       -0.3425
     10 C         140.7190  143.5282  162.8687 C.ar    1  UNL1        0.0860
     11 H         137.5882  144.3935  164.1332 H       1  UNL1        0.1437
     12 H         138.6440  143.1719  164.6817 H       1  UNL1        0.1437
     13 C         138.8977  140.1944  169.7128 C.ar    1  UNL1        0.1386
     14 C         139.7404  141.4156  169.9328 C.ar    1  UNL1        0.0369
     15 C         140.3890  142.0994  168.7658 C.ar    1  UNL1        0.0031
     16 C         140.1950  141.5619  167.3790 C.ar    1  UNL1        0.0002
     17 C         140.8437  142.2456  166.2120 C.ar    1  UNL1        0.0016
     18 C         140.6497  141.7082  164.8252 C.ar    1  UNL1        0.0195
     19 C         139.8069  140.4868  164.6052 C.ar    1  UNL1        0.0016
     20 C         139.1583  139.8031  165.7721 C.ar    1  UNL1        0.0001
     21 C         139.3523  140.3406  167.1590 C.ar    1  UNL1        0.0030
     22 C         138.7037  139.6569  168.3260 C.ar    1  UNL1        0.0369
     23 O         138.2490  139.5106  170.8797 O.3     1  UNL1       -0.4755
     24 C         136.2278  138.1128  171.7226 C.3     1  UNL1        0.0512
     25 C         136.7834  139.1936  170.8434 C.3     1  UNL1        0.2055
     26 C         144.1128  143.0099  161.0578 C.3     1  UNL1        0.1292
     27 C         144.2108  142.0863  159.8800 C.3     1  UNL1        0.0295
     28 C         144.9169  142.5321  158.6340 C.3     1  UNL1        0.0341
     29 C         145.0149  141.6084  157.4561 C.3     1  UNL1        0.1422
     30 O         144.4068  140.2390  157.5243 O.3     1  UNL1       -0.3538
     31 C         143.7007  139.7931  158.7704 C.3     1  UNL1        0.1422
     32 C         143.6027  140.7168  159.9482 C.3     1  UNL1        0.0341
@<TRIPOS>BOND
     1    24    25    1
     2    25    23    1
     3    23    13    1
     4    13    14   ar
     5    14    15   ar
     6    15    16   ar
     7    16    17   ar
     8    17    18   ar
     9    18     1    1
    10     1     2   ar
    11     2     3   ar
    12     3    26    1
    13    26    27    1
    14    27    28    1
    15    28    29    1
    16    29    30    1
    17    30    31    1
    18    31    32    1
    19     3     4   ar
    20     4     5   ar
    21     5     6   ar
    22     6     7   ar
    23     7     8   ar
    24     8     9    1
    25     8    10   ar
    26    18    19   ar
    27    19    20   ar
    28    20    21   ar
    29    21    22   ar
    30    22    13   ar
    31    21    16   ar
    32    10     1   ar
    33    32    27    1
    34    10     4   ar
    35     9    11    1
    36     9    12    1
@<TRIPOS>MOLECULE
*****
 32 36 0 0 0
SMALL
GASTEIGER

@<TRIPOS>ATOM
      1 C         140.2298  138.7263  160.8175 C.ar    1  UNL1        0.1065
      2 N         141.4778  138.1506  160.2165 N.ar    1  UNL1       -0.1679
      3 N         141.4192  138.3644  158.7329 N.ar    1  UNL1       -0.2340
      4 C         140.1350  139.0722  158.4170 C.ar    1  UNL1        0.1653
      5 N         139.5399  139.5420  157.1227 N.ar    1  UNL1       -0.2050
      6 C         138.2098  140.2354  157.1167 C.ar    1  UNL1        0.2014
      7 N         137.4747  140.4591  158.4050 N.ar    1  UNL1       -0.2093
      8 C         138.0698  139.9893  159.6993 C.ar    1  UNL1        0.1316
      9 N         137.3347  140.2130  160.9876 N.pl3   1  UNL1       -0.3425
     10 C         139.3998  139.2959  159.7053 C.ar    1  UNL1        0.0860
     11 H         136.4618  140.6681  160.9837 H       1  UNL1        0.1437
     12 H         137.7253  139.9047  161.8371 H       1  UNL1        0.1437
     13 C         139.2672  139.8712  167.5266 C.ar    1  UNL1        0.1386
     14 C         140.0827  140.9901  166.9496 C.ar    1  UNL1        0.0369
     15 C         140.4383  140.9849  165.4924 C.ar    1  UNL1        0.0031
     16 C         139.9784  139.8608  164.6122 C.ar    1  UNL1        0.0002
     17 C         140.3341  139.8556  163.1549 C.ar    1  UNL1        0.0016
     18 C         139.8742  138.7315  162.2747 C.ar    1  UNL1        0.0195
     19 C         139.0587  137.6124  162.8517 C.ar    1  UNL1        0.0016
     20 C         138.7031  137.6176  164.3089 C.ar    1  UNL1        0.0001
     21 C         139.1630  138.7418  165.1892 C.ar    1  UNL1        0.0030
     22 C         138.8074  138.7470  166.6464 C.ar    1  UNL1        0.0369
     23 O         138.9116  139.8763  168.9838 O.3     1  UNL1       -0.4755
     24 C         141.1966  139.6437  170.1982 C.3     1  UNL1        0.0512
     25 C         139.9014  140.3728  169.9956 C.3     1  UNL1        0.2055
     26 C         142.4616  137.9441  157.7397 C.3     1  UNL1        0.1292
     27 C         142.2833  136.6778  156.9557 C.3     1  UNL1        0.0295
     28 C         143.1518  135.4891  157.2431 C.3     1  UNL1        0.0341
     29 C         142.9735  134.2228  156.4591 C.3     1  UNL1        0.1422
     30 O         141.9265  134.1452  155.3877 O.3     1  UNL1       -0.3538
     31 C         141.0580  135.3339  155.1003 C.3     1  UNL1        0.1422
     32 C         141.2363  136.6002  155.8843 C.3     1  UNL1        0.0341
@<TRIPOS>BOND
     1    24    25    1
     2    25    23    1
     3    23    13    1
     4    13    14   ar
     5    14    15   ar
     6    15    16   ar
     7    16    17   ar
     8    17    18   ar
     9    18     1    1
    10     1     2   ar
    11     2     3   ar
    12     3    26    1
    13    26    27    1
    14    27    28    1
    15    28    29    1
    16    29    30    1
    17    30    31    1
    18    31    32    1
    19     3     4   ar
    20     4     5   ar
    21     5     6   ar
    22     6     7   ar
    23     7     8   ar
    24     8     9    1
    25     8    10   ar
    26    18    19   ar
    27    19    20   ar
    28    20    21   ar
    29    21    22   ar
    30    22    13   ar
    31    21    16   ar
    32    10     1   ar
    33    32    27    1
    34    10     4   ar
    35     9    11    1
    36     9    12    1
@<TRIPOS>MOLECULE
*****
 32 36 0 0 0
SMALL
GASTEIGER

@<TRIPOS>ATOM
      1 C         140.9225  142.9498  164.2495 C.ar    1  UNL1        0.1065
      2 N         141.9575  143.1831  165.3099 N.ar    1  UNL1       -0.1679
      3 N         141.7066  142.2110  166.4244 N.ar    1  UNL1       -0.2340
      4 C         140.5165  141.3769  166.0528 C.ar    1  UNL1        0.1653
      5 N         139.8115  140.2607  166.7647 N.ar    1  UNL1       -0.2050
      6 C         138.6218  139.6010  166.1325 C.ar    1  UNL1        0.2014
      7 N         138.1373  140.0576  164.7884 N.ar    1  UNL1       -0.2093
      8 C         138.8423  141.1739  164.0764 C.ar    1  UNL1        0.1316
      9 N         138.3577  141.6305  162.7323 N.pl3   1  UNL1       -0.3425
     10 C         140.0319  141.8335  164.7087 C.ar    1  UNL1        0.0860
     11 H         137.5769  141.1975  162.3174 H       1  UNL1        0.1437
     12 H         138.8204  142.3632  162.2651 H       1  UNL1        0.1437
     13 C         141.1923  145.4966  157.8705 C.ar    1  UNL1        0.1386
     14 C         142.0763  144.2877  157.9544 C.ar    1  UNL1        0.0369
     15 C         142.1992  143.5366  159.2470 C.ar    1  UNL1        0.0031
     16 C         141.4380  143.9943  160.4557 C.ar    1  UNL1        0.0002
     17 C         141.5608  143.2432  161.7482 C.ar    1  UNL1        0.0016
     18 C         140.7996  143.7010  162.9569 C.ar    1  UNL1        0.0195
     19 C         139.9155  144.9099  162.8731 C.ar    1  UNL1        0.0016
     20 C         139.7927  145.6610  161.5805 C.ar    1  UNL1        0.0001
     21 C         140.5539  145.2032  160.3718 C.ar    1  UNL1        0.0030
     22 C         140.4311  145.9543  159.0792 C.ar    1  UNL1        0.0369
     23 O         141.0694  146.2477  156.5780 O.3     1  UNL1       -0.4755
     24 C         139.6215  147.6237  154.9166 C.3     1  UNL1        0.0512
     25 C         139.7253  146.7226  156.1114 C.3     1  UNL1        0.2055
     26 C         142.5054  142.0936  167.6884 C.3     1  UNL1        0.1292
     27 C         141.8132  142.1259  169.0188 C.3     1  UNL1        0.0295
     28 C         142.2658  141.2159  170.1220 C.3     1  UNL1        0.0341
     29 C         141.5736  141.2482  171.4524 C.3     1  UNL1        0.1422
     30 O         140.4288  142.1904  171.6795 O.3     1  UNL1       -0.3538
     31 C         139.9762  143.1004  170.5763 C.3     1  UNL1        0.1422
     32 C         140.6684  143.0681  169.2459 C.3     1  UNL1        0.0341
@<TRIPOS>BOND
     1    24    25    1
     2    25    23    1
     3    23    13    1
     4    13    14   ar
     5    14    15   ar
     6    15    16   ar
     7    16    17   ar
     8    17    18   ar
     9    18     1    1
    10     1     2   ar
    11     2     3   ar
    12     3    26    1
    13    26    27    1
    14    27    28    1
    15    28    29    1
    16    29    30    1
    17    30    31    1
    18    31    32    1
    19     3     4   ar
    20     4     5   ar
    21     5     6   ar
    22     6     7   ar
    23     7     8   ar
    24     8     9    1
    25     8    10   ar
    26    18    19   ar
    27    19    20   ar
    28    20    21   ar
    29    21    22   ar
    30    22    13   ar
    31    21    16   ar
    32    10     1   ar
    33    32    27    1
    34    10     4   ar
    35     9    11    1
    36     9    12    1
@<TRIPOS>MOLECULE
*****
 32 36 0 0 0
SMALL
GASTEIGER

@<TRIPOS>ATOM
      1 C         141.0194  138.5948  159.9493 C.ar    1  UNL1        0.1065
      2 N         142.1650  137.7777  159.4298 N.ar    1  UNL1       -0.1679
      3 N         142.0193  137.6689  157.9408 N.ar    1  UNL1       -0.2340
      4 C         140.7835  138.4188  157.5401 C.ar    1  UNL1        0.1653
      5 N         140.1411  138.6545  156.2053 N.ar    1  UNL1       -0.2050
      6 C         138.8807  139.4625  156.1117 C.ar    1  UNL1        0.2014
      7 N         138.2628  140.0347  157.3530 N.ar    1  UNL1       -0.2093
      8 C         138.9052  139.7990  158.6878 C.ar    1  UNL1        0.1316
      9 N         138.2873  140.3712  159.9291 N.pl3   1  UNL1       -0.3425
     10 C         140.1655  138.9911  158.7813 C.ar    1  UNL1        0.0860
     11 H         137.4601  140.9015  159.8677 H       1  UNL1        0.1437
     12 H         138.7089  140.2165  160.8051 H       1  UNL1        0.1437
     13 C         139.1385  139.1631  166.5363 C.ar    1  UNL1        0.1386
     14 C         138.4987  137.9413  165.9466 C.ar    1  UNL1        0.0369
     15 C         138.7469  137.5833  164.5113 C.ar    1  UNL1        0.0031
     16 C         139.6349  138.4471  163.6656 C.ar    1  UNL1        0.0002
     17 C         139.8831  138.0890  162.2303 C.ar    1  UNL1        0.0016
     18 C         140.7712  138.9528  161.3846 C.ar    1  UNL1        0.0195
     19 C         141.4111  140.1747  161.9743 C.ar    1  UNL1        0.0016
     20 C         141.1629  140.5327  163.4096 C.ar    1  UNL1        0.0001
     21 C         140.2747  139.6689  164.2553 C.ar    1  UNL1        0.0030
     22 C         140.0265  140.0269  165.6906 C.ar    1  UNL1        0.0369
     23 O         138.8903  139.5211  167.9716 O.3     1  UNL1       -0.4755
     24 C         140.6743  139.8813  169.8257 C.3     1  UNL1        0.0512
     25 C         139.8471  140.4205  168.6965 C.3     1  UNL1        0.2055
     26 C         142.9464  136.9385  157.0152 C.3     1  UNL1        0.1292
     27 C         142.6888  135.5000  156.6770 C.3     1  UNL1        0.0295
     28 C         141.6973  135.1467  155.6084 C.3     1  UNL1        0.0341
     29 C         141.4397  133.7081  155.2702 C.3     1  UNL1        0.1422
     30 O         142.1737  132.6229  156.0007 O.3     1  UNL1       -0.3538
     31 C         143.1652  132.9763  157.0694 C.3     1  UNL1        0.1422
     32 C         143.4227  134.4148  157.4075 C.3     1  UNL1        0.0341
@<TRIPOS>BOND
     1    24    25    1
     2    25    23    1
     3    23    13    1
     4    13    14   ar
     5    14    15   ar
     6    15    16   ar
     7    16    17   ar
     8    17    18   ar
     9    18     1    1
    10     1     2   ar
    11     2     3   ar
    12     3    26    1
    13    26    27    1
    14    27    28    1
    15    28    29    1
    16    29    30    1
    17    30    31    1
    18    31    32    1
    19     3     4   ar
    20     4     5   ar
    21     5     6   ar
    22     6     7   ar
    23     7     8   ar
    24     8     9    1
    25     8    10   ar
    26    18    19   ar
    27    19    20   ar
    28    20    21   ar
    29    21    22   ar
    30    22    13   ar
    31    21    16   ar
    32    10     1   ar
    33    32    27    1
    34    10     4   ar
    35     9    11    1
    36     9    12    1
@<TRIPOS>MOLECULE
*****
 32 36 0 0 0
SMALL
GASTEIGER

@<TRIPOS>ATOM
      1 C         141.1933  142.4462  163.8265 C.ar    1  UNL1        0.1065
      2 N         140.5608  143.5320  163.0074 N.ar    1  UNL1       -0.1679
      3 N         141.5503  143.9630  161.9657 N.ar    1  UNL1       -0.2340
      4 C         142.7944  143.1436  162.1410 C.ar    1  UNL1        0.1653
      5 N         144.0996  143.1300  161.4020 N.ar    1  UNL1       -0.2050
      6 C         145.1844  142.1789  161.8130 C.ar    1  UNL1        0.2014
      7 N         144.9638  141.2415  162.9631 N.ar    1  UNL1       -0.2093
      8 C         143.6585  141.2551  163.7020 C.ar    1  UNL1        0.1316
      9 N         143.4379  140.3177  164.8521 N.pl3   1  UNL1       -0.3425
     10 C         142.5739  142.2062  163.2910 C.ar    1  UNL1        0.0860
     11 H         144.1498  139.6934  165.1219 H       1  UNL1        0.1437
     12 H         142.5812  140.3266  165.3371 H       1  UNL1        0.1437
     13 C         138.7973  140.1043  169.8285 C.ar    1  UNL1        0.1386
     14 C         139.5821  141.3597  170.0693 C.ar    1  UNL1        0.0369
     15 C         140.2183  142.0792  168.9171 C.ar    1  UNL1        0.0031
     16 C         140.0697  141.5432  167.5240 C.ar    1  UNL1        0.0002
     17 C         140.7058  142.2627  166.3718 C.ar    1  UNL1        0.0016
     18 C         140.5572  141.7267  164.9787 C.ar    1  UNL1        0.0195
     19 C         139.7723  140.4713  164.7379 C.ar    1  UNL1        0.0016
     20 C         139.1362  139.7518  165.8901 C.ar    1  UNL1        0.0001
     21 C         139.2848  140.2878  167.2832 C.ar    1  UNL1        0.0030
     22 C         138.6487  139.5684  168.4355 C.ar    1  UNL1        0.0369
     23 O         138.1612  139.3849  170.9808 O.3     1  UNL1       -0.4755
     24 C         136.1560  138.0040  171.8876 C.3     1  UNL1        0.0512
     25 C         136.7106  139.0079  170.9208 C.3     1  UNL1        0.2055
     26 C         141.3337  145.0266  160.9305 C.3     1  UNL1        0.1292
     27 C         140.6793  144.6811  159.6257 C.3     1  UNL1        0.0295
     28 C         140.9520  145.5116  158.4067 C.3     1  UNL1        0.0341
     29 C         140.2976  145.1660  157.1020 C.3     1  UNL1        0.1422
     30 O         139.3704  143.9901  157.0162 O.3     1  UNL1       -0.3538
     31 C         139.0977  143.1596  158.2352 C.3     1  UNL1        0.1422
     32 C         139.7521  143.5051  159.5399 C.3     1  UNL1        0.0341
@<TRIPOS>BOND
     1    24    25    1
     2    25    23    1
     3    23    13    1
     4    13    14   ar
     5    14    15   ar
     6    15    16   ar
     7    16    17   ar
     8    17    18   ar
     9    18     1    1
    10     1     2   ar
    11     2     3   ar
    12     3    26    1
    13    26    27    1
    14    27    28    1
    15    28    29    1
    16    29    30    1
    17    30    31    1
    18    31    32    1
    19     3     4   ar
    20     4     5   ar
    21     5     6   ar
    22     6     7   ar
    23     7     8   ar
    24     8     9    1
    25     8    10   ar
    26    18    19   ar
    27    19    20   ar
    28    20    21   ar
    29    21    22   ar
    30    22    13   ar
    31    21    16   ar
    32    10     1   ar
    33    32    27    1
    34    10     4   ar
    35     9    11    1
    36     9    12    1
@<TRIPOS>MOLECULE
*****
 32 36 0 0 0
SMALL
GASTEIGER

@<TRIPOS>ATOM
      1 C         143.3484  142.2564  161.2860 C.ar    1  UNL1        0.1065
      2 N         143.9653  141.1833  160.4387 N.ar    1  UNL1       -0.1679
      3 N         143.7559  141.5512  158.9997 N.ar    1  UNL1       -0.2340
      4 C         143.0095  142.8516  158.9576 C.ar    1  UNL1        0.1653
      5 N         142.5267  143.6953  157.8152 N.ar    1  UNL1       -0.2050
      6 C         141.7920  144.9748  158.0858 C.ar    1  UNL1        0.2014
      7 N         141.5401  145.4106  159.4988 N.ar    1  UNL1       -0.2093
      8 C         142.0230  144.5670  160.6413 C.ar    1  UNL1        0.1316
      9 N         141.7711  145.0028  162.0543 N.pl3   1  UNL1       -0.3425
     10 C         142.7576  143.2875  160.3706 C.ar    1  UNL1        0.0860
     11 H         141.2889  145.8425  162.2319 H       1  UNL1        0.1437
     12 H         142.0880  144.4490  162.8041 H       1  UNL1        0.1437
     13 C         142.1527  141.7187  168.0337 C.ar    1  UNL1        0.1386
     14 C         141.0685  141.0025  167.2843 C.ar    1  UNL1        0.0369
     15 C         141.0908  140.9668  165.7849 C.ar    1  UNL1        0.0031
     16 C         142.1973  141.6473  165.0349 C.ar    1  UNL1        0.0002
     17 C         142.2196  141.6116  163.5355 C.ar    1  UNL1        0.0016
     18 C         143.3261  142.2921  162.7854 C.ar    1  UNL1        0.0195
     19 C         144.4103  143.0083  163.5348 C.ar    1  UNL1        0.0016
     20 C         144.3880  143.0440  165.0342 C.ar    1  UNL1        0.0001
     21 C         143.2815  142.3635  165.7843 C.ar    1  UNL1        0.0030
     22 C         143.2591  142.3992  167.2837 C.ar    1  UNL1        0.0369
     23 O         142.1303  141.7544  169.5331 O.3     1  UNL1       -0.4755
     24 C         140.5114  143.7727  169.7689 C.3     1  UNL1        0.0512
     25 C         141.7071  143.0037  170.2474 C.3     1  UNL1        0.2055
     26 C         144.2126  140.7580  157.8114 C.3     1  UNL1        0.1292
     27 C         145.3330  141.2685  156.9545 C.3     1  UNL1        0.0295
     28 C         145.5558  140.6905  155.5884 C.3     1  UNL1        0.0341
     29 C         146.6761  141.2010  154.7316 C.3     1  UNL1        0.1422
     30 O         147.5737  142.2896  155.2408 O.3     1  UNL1       -0.3538
     31 C         147.3509  142.8677  156.6069 C.3     1  UNL1        0.1422
     32 C         146.2305  142.3571  157.4638 C.3     1  UNL1        0.0341
@<TRIPOS>BOND
     1    24    25    1
     2    25    23    1
     3    23    13    1
     4    13    14   ar
     5    14    15   ar
     6    15    16   ar
     7    16    17   ar
     8    17    18   ar
     9    18     1    1
    10     1     2   ar
    11     2     3   ar
    12     3    26    1
    13    26    27    1
    14    27    28    1
    15    28    29    1
    16    29    30    1
    17    30    31    1
    18    31    32    1
    19     3     4   ar
    20     4     5   ar
    21     5     6   ar
    22     6     7   ar
    23     7     8   ar
    24     8     9    1
    25     8    10   ar
    26    18    19   ar
    27    19    20   ar
    28    20    21   ar
    29    21    22   ar
    30    22    13   ar
    31    21    16   ar
    32    10     1   ar
    33    32    27    1
    34    10     4   ar
    35     9    11    1
    36     9    12    1
@<TRIPOS>MOLECULE
*****
 32 36 0 0 0
SMALL
GASTEIGER

@<TRIPOS>ATOM
      1 C         141.3954  139.9486  164.3309 C.ar    1  UNL1        0.1065
      2 N         142.1455  141.0539  165.0134 N.ar    1  UNL1       -0.1679
      3 N         141.4912  141.3086  166.3389 N.ar    1  UNL1       -0.2340
      4 C         140.3367  140.3608  166.4757 C.ar    1  UNL1        0.1653
      5 N         139.3318  140.1544  167.5700 N.ar    1  UNL1       -0.2050
      6 C         138.2675  139.1075  167.4233 C.ar    1  UNL1        0.2014
      7 N         138.2083  138.2670  166.1823 N.ar    1  UNL1       -0.2093
      8 C         139.2132  138.4734  165.0880 C.ar    1  UNL1        0.1316
      9 N         139.1540  137.6328  163.8470 N.pl3   1  UNL1       -0.3425
     10 C         140.2774  139.5202  165.2347 C.ar    1  UNL1        0.0860
     11 H         138.4555  136.9457  163.7507 H       1  UNL1        0.1437
     12 H         139.8136  137.7683  163.1288 H       1  UNL1        0.1437
     13 C         141.7814  137.9821  157.7557 C.ar    1  UNL1        0.1386
     14 C         140.6033  138.8945  157.9269 C.ar    1  UNL1        0.0369
     15 C         140.2905  139.4703  159.2762 C.ar    1  UNL1        0.0031
     16 C         141.1558  139.1337  160.4543 C.ar    1  UNL1        0.0002
     17 C         140.8429  139.7095  161.8036 C.ar    1  UNL1        0.0016
     18 C         141.7082  139.3728  162.9816 C.ar    1  UNL1        0.0195
     19 C         142.8864  138.4603  162.8104 C.ar    1  UNL1        0.0016
     20 C         143.1993  137.8845  161.4612 C.ar    1  UNL1        0.0001
     21 C         142.3339  138.2212  160.2831 C.ar    1  UNL1        0.0030
     22 C         142.6467  137.6454  158.9338 C.ar    1  UNL1        0.0369
     23 O         142.0942  137.4062  156.4064 O.3     1  UNL1       -0.4755
     24 C         144.0063  135.8165  155.6536 C.3     1  UNL1        0.0512
     25 C         142.6664  136.0241  156.2951 C.3     1  UNL1        0.2055
     26 C         141.9167  142.3315  167.3501 C.3     1  UNL1        0.1292
     27 C         141.4601  142.2136  168.7740 C.3     1  UNL1        0.0295
     28 C         142.0897  141.1990  169.6819 C.3     1  UNL1        0.0341
     29 C         141.6332  141.0810  171.1059 C.3     1  UNL1        0.1422
     30 O         140.5469  141.9776  171.6219 O.3     1  UNL1       -0.3538
     31 C         139.9173  142.9921  170.7140 C.3     1  UNL1        0.1422
     32 C         140.3739  143.1101  169.2901 C.3     1  UNL1        0.0341
@<TRIPOS>BOND
     1    24    25    1
     2    25    23    1
     3    23    13    1
     4    13    14   ar
     5    14    15   ar
     6    15    16   ar
     7    16    17   ar
     8    17    18   ar
     9    18     1    1
    10     1     2   ar
    11     2     3   ar
    12     3    26    1
    13    26    27    1
    14    27    28    1
    15    28    29    1
    16    29    30    1
    17    30    31    1
    18    31    32    1
    19     3     4   ar
    20     4     5   ar
    21     5     6   ar
    22     6     7   ar
    23     7     8   ar
    24     8     9    1
    25     8    10   ar
    26    18    19   ar
    27    19    20   ar
    28    20    21   ar
    29    21    22   ar
    30    22    13   ar
    31    21    16   ar
    32    10     1   ar
    33    32    27    1
    34    10     4   ar
    35     9    11    1
    36     9    12    1
@<TRIPOS>MOLECULE
*****
 32 36 0 0 0
SMALL
GASTEIGER

@<TRIPOS>ATOM
      1 C         141.0838  141.6977  164.5863 C.ar    1  UNL1        0.1065
      2 N         140.0681  141.6313  165.6881 N.ar    1  UNL1       -0.1679
      3 N         140.4765  140.5375  166.6298 N.ar    1  UNL1       -0.2340
      4 C         141.7446  139.9278  166.1100 C.ar    1  UNL1        0.1653
      5 N         142.6060  138.8123  166.6234 N.ar    1  UNL1       -0.2050
      6 C         143.8429  138.4139  165.8740 C.ar    1  UNL1        0.2014
      7 N         144.2182  139.1310  164.6110 N.ar    1  UNL1       -0.2093
      8 C         143.3567  140.2464  164.0975 C.ar    1  UNL1        0.1316
      9 N         143.7321  140.9635  162.8346 N.pl3   1  UNL1       -0.3425
     10 C         142.1200  140.6448  164.8470 C.ar    1  UNL1        0.0860
     11 H         144.5438  140.7020  162.3427 H       1  UNL1        0.1437
     12 H         143.1667  141.6956  162.4976 H       1  UNL1        0.1437
     13 C         140.3617  145.1054  158.6604 C.ar    1  UNL1        0.1386
     14 C         139.7265  143.7528  158.5296 C.ar    1  UNL1        0.0369
     15 C         139.7439  142.8008  159.6886 C.ar    1  UNL1        0.0031
     16 C         140.3965  143.2013  160.9784 C.ar    1  UNL1        0.0002
     17 C         140.4138  142.2492  162.1374 C.ar    1  UNL1        0.0016
     18 C         141.0664  142.6497  163.4273 C.ar    1  UNL1        0.0195
     19 C         141.7017  144.0023  163.5581 C.ar    1  UNL1        0.0016
     20 C         141.6843  144.9543  162.3991 C.ar    1  UNL1        0.0001
     21 C         141.0317  144.5538  161.1092 C.ar    1  UNL1        0.0030
     22 C         141.0143  145.5058  159.9502 C.ar    1  UNL1        0.0369
     23 O         140.3443  146.0574  157.5014 O.3     1  UNL1       -0.4755
     24 C         138.9547  146.8873  155.4691 C.3     1  UNL1        0.0512
     25 C         139.4951  145.7620  156.3008 C.3     1  UNL1        0.2055
     26 C         139.7452  140.1256  167.8729 C.3     1  UNL1        0.1292
     27 C         140.0701  140.7768  169.1846 C.3     1  UNL1        0.0295
     28 C         139.6781  142.2035  169.4311 C.3     1  UNL1        0.0341
     29 C         140.0030  142.8547  170.7428 C.3     1  UNL1        0.1422
     30 O         140.7198  142.0791  171.8080 O.3     1  UNL1       -0.3538
     31 C         141.1117  140.6524  171.5615 C.3     1  UNL1        0.1422
     32 C         140.7869  140.0012  170.2498 C.3     1  UNL1        0.0341
@<TRIPOS>BOND
     1    24    25    1
     2    25    23    1
     3    23    13    1
     4    13    14   ar
     5    14    15   ar
     6    15    16   ar
     7    16    17   ar
     8    17    18   ar
     9    18     1    1
    10     1     2   ar
    11     2     3   ar
    12     3    26    1
    13    26    27    1
    14    27    28    1
    15    28    29    1
    16    29    30    1
    17    30    31    1
    18    31    32    1
    19     3     4   ar
    20     4     5   ar
    21     5     6   ar
    22     6     7   ar
    23     7     8   ar
    24     8     9    1
    25     8    10   ar
    26    18    19   ar
    27    19    20   ar
    28    20    21   ar
    29    21    22   ar
    30    22    13   ar
    31    21    16   ar
    32    10     1   ar
    33    32    27    1
    34    10     4   ar
    35     9    11    1
    36     9    12    1
@<TRIPOS>MOLECULE
*****
 32 36 0 0 0
SMALL
GASTEIGER

@<TRIPOS>ATOM
      1 C         139.2643  139.7675  162.4888 C.ar    1  UNL1        0.1065
      2 N         138.1958  140.3063  161.5845 N.ar    1  UNL1       -0.1679
      3 N         138.5979  140.0178  160.1685 N.ar    1  UNL1       -0.2340
      4 C         139.9150  139.3006  160.1977 C.ar    1  UNL1        0.1653
      5 N         140.7926  138.7684  159.1037 N.ar    1  UNL1       -0.2050
      6 C         142.0820  138.0815  159.4438 C.ar    1  UNL1        0.2014
      7 N         142.4939  137.9268  160.8779 N.ar    1  UNL1       -0.2093
      8 C         141.6164  138.4590  161.9718 C.ar    1  UNL1        0.1316
      9 N         142.0282  138.3044  163.4059 N.pl3   1  UNL1       -0.3425
     10 C         140.3270  139.1459  161.6317 C.ar    1  UNL1        0.0860
     11 H         142.8745  137.8535  163.6291 H       1  UNL1        0.1437
     12 H         141.4523  138.6537  164.1238 H       1  UNL1        0.1437
     13 C         139.9006  141.2280  169.1755 C.ar    1  UNL1        0.1386
     14 C         140.5113  142.3366  168.3705 C.ar    1  UNL1        0.0369
     15 C         140.5062  142.2662  166.8722 C.ar    1  UNL1        0.0031
     16 C         139.8904  141.0872  166.1788 C.ar    1  UNL1        0.0002
     17 C         139.8853  141.0168  164.6805 C.ar    1  UNL1        0.0016
     18 C         139.2695  139.8379  163.9872 C.ar    1  UNL1        0.0195
     19 C         138.6587  138.7292  164.7922 C.ar    1  UNL1        0.0016
     20 C         138.6638  138.7996  166.2905 C.ar    1  UNL1        0.0001
     21 C         139.2797  139.9787  166.9838 C.ar    1  UNL1        0.0030
     22 C         139.2848  140.0490  168.4822 C.ar    1  UNL1        0.0369
     23 O         139.9058  141.2984  170.6739 O.3     1  UNL1       -0.4755
     24 C         142.3576  140.4541  170.8332 C.3     1  UNL1        0.0512
     25 C         141.2008  141.2036  171.4247 C.3     1  UNL1        0.2055
     26 C         137.8197  140.3824  158.9392 C.3     1  UNL1        0.1292
     27 C         138.1940  141.6009  158.1485 C.3     1  UNL1        0.0295
     28 C         137.5304  141.8732  156.8311 C.3     1  UNL1        0.0341
     29 C         137.9047  143.0917  156.0405 C.3     1  UNL1        0.1422
     30 O         138.9427  144.0379  156.5671 O.3     1  UNL1       -0.3538
     31 C         139.6063  143.7655  157.8845 C.3     1  UNL1        0.1422
     32 C         139.2320  142.5470  158.6751 C.3     1  UNL1        0.0341
@<TRIPOS>BOND
     1    24    25    1
     2    25    23    1
     3    23    13    1
     4    13    14   ar
     5    14    15   ar
     6    15    16   ar
     7    16    17   ar
     8    17    18   ar
     9    18     1    1
    10     1     2   ar
    11     2     3   ar
    12     3    26    1
    13    26    27    1
    14    27    28    1
    15    28    29    1
    16    29    30    1
    17    30    31    1
    18    31    32    1
    19     3     4   ar
    20     4     5   ar
    21     5     6   ar
    22     6     7   ar
    23     7     8   ar
    24     8     9    1
    25     8    10   ar
    26    18    19   ar
    27    19    20   ar
    28    20    21   ar
    29    21    22   ar
    30    22    13   ar
    31    21    16   ar
    32    10     1   ar
    33    32    27    1
    34    10     4   ar
    35     9    11    1
    36     9    12    1
