@<TRIPOS>MOLECULE
*****
 33 35 0 0 0
SMALL
GASTEIGER

@<TRIPOS>ATOM
      1 N         138.3472  137.3671  162.4043 N.pl3   1  UNL1       -0.3287
      2 C         139.6823  138.0508  162.4070 C.ar    1  UNL1        0.1959
      3 N         141.0191  137.3744  162.4810 N.ar    1  UNL1       -0.2123
      4 C         142.0781  138.4365  162.4559 C.ar    1  UNL1        0.1184
      5 C         143.5755  138.3621  162.5030 C.ar    1  UNL1        0.0271
      6 C         144.3905  139.6206  162.4606 C.ar    1  UNL1        0.0594
      7 C         143.7082  140.9534  162.3710 C.ar    1  UNL1        0.2265
      8 N         142.2108  141.0278  162.3239 N.ar    1  UNL1       -0.1926
      9 C         141.3958  139.7693  162.3664 C.ar    1  UNL1        0.1668
     10 N         139.9151  139.5309  162.3362 N.ar    1  UNL1       -0.2824
     11 H         138.2969  136.3852  162.4543 H       1  UNL1        0.1451
     12 H         137.5212  137.9003  162.3525 H       1  UNL1        0.1451
     13 O         144.5234  142.2120  162.3286 O.3     1  UNL1       -0.4509
     14 C         144.1182  143.3962  163.1552 C.3     1  UNL1        0.3095
     15 C         144.2034  143.3310  164.6514 C.3     1  UNL1        0.4381
     16 F         144.2886  143.2658  166.1476 F       1  UNL1       -0.1663
     17 F         145.5100  142.6021  164.5453 F       1  UNL1       -0.1663
     18 F         142.8967  144.0599  164.7576 F       1  UNL1       -0.1663
     19 C         138.8536  140.5872  162.2502 C.3     1  UNL1        0.1438
     20 C         137.9852  140.8763  163.4385 C.3     1  UNL1        0.1561
     21 O         136.5883  141.3858  163.2403 O.3     1  UNL1       -0.3780
     22 H         136.1675  141.5198  164.1040 H       1  UNL1        0.2109
     23 C         138.5135  140.6560  164.8250 C.ar    1  UNL1        0.0167
     24 C         138.1029  139.4387  165.5993 C.ar    1  UNL1       -0.0011
     25 C         138.6312  139.2184  166.9858 C.ar    1  UNL1        0.0037
     26 C         139.5700  140.2153  167.5980 C.ar    1  UNL1        0.0722
     27 C         139.9806  141.4326  166.8236 C.ar    1  UNL1        0.0150
     28 C         139.4523  141.6529  165.4371 C.ar    1  UNL1        0.0559
     29 CL        139.8629  142.8702  164.6627 Cl      1  UNL1       -0.0825
     30 C         140.0984  139.9950  168.9845 C.3     1  UNL1        0.4186
     31 F         140.6266  139.7748  170.3710 F       1  UNL1       -0.1659
     32 F         138.7514  140.3330  169.5514 F       1  UNL1       -0.1659
     33 F         141.4453  139.6571  168.4175 F       1  UNL1       -0.1659
@<TRIPOS>BOND
     1     1     2    1
     2     2     3   ar
     3     3     4   ar
     4     4     5   ar
     5     5     6   ar
     6     6     7   ar
     7     7    13    1
     8    13    14    1
     9    14    15    1
    10    15    16    1
    11    15    17    1
    12    15    18    1
    13     7     8   ar
    14     8     9   ar
    15     9    10   ar
    16    10    19    1
    17    19    20    1
    18    20    21    1
    19    20    23    1
    20    23    24   ar
    21    24    25   ar
    22    25    26   ar
    23    26    30    1
    24    30    31    1
    25    30    32    1
    26    30    33    1
    27    26    27   ar
    28    27    28   ar
    29    28    29    1
    30    10     2   ar
    31    28    23   ar
    32     9     4   ar
    33     1    11    1
    34     1    12    1
    35    21    22    1
@<TRIPOS>MOLECULE
*****
 33 35 0 0 0
SMALL
GASTEIGER

@<TRIPOS>ATOM
      1 N         143.7142  145.5068  162.8213 N.pl3   1  UNL1       -0.3287
      2 C         142.4893  144.7356  163.2146 C.ar    1  UNL1        0.1959
      3 N         141.1539  145.3212  163.5666 N.ar    1  UNL1       -0.2123
      4 C         140.2239  144.1909  163.8945 C.ar    1  UNL1        0.1184
      5 C         138.7828  144.1652  164.3098 C.ar    1  UNL1        0.0271
      6 C         138.1022  142.8552  164.5756 C.ar    1  UNL1        0.0594
      7 C         138.8628  141.5710  164.4262 C.ar    1  UNL1        0.2265
      8 N         140.3039  141.5967  164.0109 N.ar    1  UNL1       -0.1926
      9 C         140.9844  142.9067  163.7451 C.ar    1  UNL1        0.1668
     10 N         142.3845  143.2433  163.3249 N.ar    1  UNL1       -0.2824
     11 H         143.6840  146.4898  162.7772 H       1  UNL1        0.1451
     12 H         144.5485  145.0299  162.6074 H       1  UNL1        0.1451
     13 O         138.1821  140.2609  164.6921 O.3     1  UNL1       -0.4509
     14 C         138.9545  139.1220  165.2888 C.3     1  UNL1        0.3095
     15 C         138.2424  138.0679  166.0839 C.3     1  UNL1        0.4381
     16 F         137.5305  137.0138  166.8788 F       1  UNL1       -0.1663
     17 F         137.4336  139.1300  166.7678 F       1  UNL1       -0.1663
     18 F         139.0512  137.0058  165.4000 F       1  UNL1       -0.1663
     19 C         143.4863  142.2602  163.0613 C.3     1  UNL1        0.1438
     20 C         144.3088  141.7325  164.1992 C.3     1  UNL1        0.1561
     21 O         145.8048  141.7033  164.0931 O.3     1  UNL1       -0.3780
     22 H         146.1797  141.3357  164.9087 H       1  UNL1        0.2109
     23 C         143.6354  141.2338  165.4433 C.ar    1  UNL1        0.0167
     24 C         143.2961  142.1906  166.5475 C.ar    1  UNL1       -0.0011
     25 C         142.6227  141.6920  167.7916 C.ar    1  UNL1        0.0037
     26 C         142.2886  140.2364  167.9316 C.ar    1  UNL1        0.0722
     27 C         142.6278  139.2795  166.8274 C.ar    1  UNL1        0.0150
     28 C         143.3012  139.7782  165.5832 C.ar    1  UNL1        0.0559
     29 CL        143.6404  138.8213  164.4790 Cl      1  UNL1       -0.0825
     30 C         141.6151  139.7376  169.1757 C.3     1  UNL1        0.4186
     31 F         140.9418  139.2388  170.4198 F       1  UNL1       -0.1659
     32 F         142.9367  139.7232  169.8851 F       1  UNL1       -0.1659
     33 F         140.2937  139.7520  168.4662 F       1  UNL1       -0.1659
@<TRIPOS>BOND
     1     1     2    1
     2     2     3   ar
     3     3     4   ar
     4     4     5   ar
     5     5     6   ar
     6     6     7   ar
     7     7    13    1
     8    13    14    1
     9    14    15    1
    10    15    16    1
    11    15    17    1
    12    15    18    1
    13     7     8   ar
    14     8     9   ar
    15     9    10   ar
    16    10    19    1
    17    19    20    1
    18    20    21    1
    19    20    23    1
    20    23    24   ar
    21    24    25   ar
    22    25    26   ar
    23    26    30    1
    24    30    31    1
    25    30    32    1
    26    30    33    1
    27    26    27   ar
    28    27    28   ar
    29    28    29    1
    30    10     2   ar
    31    28    23   ar
    32     9     4   ar
    33     1    11    1
    34     1    12    1
    35    21    22    1
@<TRIPOS>MOLECULE
*****
 33 35 0 0 0
SMALL
GASTEIGER

@<TRIPOS>ATOM
      1 N         140.2201  146.3782  162.4052 N.pl3   1  UNL1       -0.3287
      2 C         141.1293  145.2908  162.8960 C.ar    1  UNL1        0.1959
      3 N         142.2595  145.4581  163.8680 N.ar    1  UNL1       -0.2123
      4 C         142.8967  144.1159  164.0736 C.ar    1  UNL1        0.1184
      5 C         144.0522  143.6727  164.9211 C.ar    1  UNL1        0.0271
      6 C         144.4715  142.2325  164.9236 C.ar    1  UNL1        0.0594
      7 C         143.7351  141.2355  164.0787 C.ar    1  UNL1        0.2265
      8 N         142.5796  141.6787  163.2313 N.ar    1  UNL1       -0.1926
      9 C         142.1603  143.1189  163.2288 C.ar    1  UNL1        0.1668
     10 N         141.0681  143.8450  162.5009 N.ar    1  UNL1       -0.2824
     11 H         140.3402  147.3017  162.7244 H       1  UNL1        0.1451
     12 H         139.5032  146.1683  161.7639 H       1  UNL1        0.1451
     13 O         144.1544  139.7952  164.0813 O.3     1  UNL1       -0.4509
     14 C         143.8368  138.9238  165.2601 C.3     1  UNL1        0.3095
     15 C         142.5196  139.0649  165.9640 C.3     1  UNL1        0.4381
     16 F         141.2026  139.2061  166.6678 F       1  UNL1       -0.1663
     17 F         141.8031  138.7176  164.6928 F       1  UNL1       -0.1663
     18 F         143.2362  139.4122  167.2351 F       1  UNL1       -0.1663
     19 C         140.0868  143.2328  161.5458 C.3     1  UNL1        0.1438
     20 C         138.7407  142.7881  162.0357 C.3     1  UNL1        0.1561
     21 O         137.5053  143.5204  161.6025 O.3     1  UNL1       -0.3780
     22 H         136.7262  143.1074  162.0066 H       1  UNL1        0.2109
     23 C         138.6298  141.6111  162.9590 C.ar    1  UNL1        0.0167
     24 C         138.5634  140.2216  162.3981 C.ar    1  UNL1       -0.0011
     25 C         138.4525  139.0446  163.3213 C.ar    1  UNL1        0.0037
     26 C         138.4080  139.2571  164.8055 C.ar    1  UNL1        0.0722
     27 C         138.4745  140.6467  165.3664 C.ar    1  UNL1        0.0150
     28 C         138.5854  141.8237  164.4432 C.ar    1  UNL1        0.0559
     29 CL        138.6518  143.2133  165.0041 Cl      1  UNL1       -0.0825
     30 C         138.2971  138.0802  165.7289 C.3     1  UNL1        0.4186
     31 F         138.1862  136.9033  166.6522 F       1  UNL1       -0.1659
     32 F         137.3995  138.8733  166.6318 F       1  UNL1       -0.1659
     33 F         139.1947  137.2872  164.8258 F       1  UNL1       -0.1659
@<TRIPOS>BOND
     1     1     2    1
     2     2     3   ar
     3     3     4   ar
     4     4     5   ar
     5     5     6   ar
     6     6     7   ar
     7     7    13    1
     8    13    14    1
     9    14    15    1
    10    15    16    1
    11    15    17    1
    12    15    18    1
    13     7     8   ar
    14     8     9   ar
    15     9    10   ar
    16    10    19    1
    17    19    20    1
    18    20    21    1
    19    20    23    1
    20    23    24   ar
    21    24    25   ar
    22    25    26   ar
    23    26    30    1
    24    30    31    1
    25    30    32    1
    26    30    33    1
    27    26    27   ar
    28    27    28   ar
    29    28    29    1
    30    10     2   ar
    31    28    23   ar
    32     9     4   ar
    33     1    11    1
    34     1    12    1
    35    21    22    1
@<TRIPOS>MOLECULE
*****
 33 35 0 0 0
SMALL
GASTEIGER

@<TRIPOS>ATOM
      1 N         138.2244  137.6061  162.2262 N.pl3   1  UNL1       -0.3287
      2 C         139.5814  138.2430  162.1734 C.ar    1  UNL1        0.1959
      3 N         140.8961  137.5229  162.2271 N.ar    1  UNL1       -0.2123
      4 C         141.9892  138.5467  162.1444 C.ar    1  UNL1        0.1184
      5 C         143.4840  138.4219  162.1510 C.ar    1  UNL1        0.0271
      6 C         144.3396  139.6499  162.0529 C.ar    1  UNL1        0.0594
      7 C         143.7005  141.0029  161.9481 C.ar    1  UNL1        0.2265
      8 N         142.2057  141.1278  161.9415 N.ar    1  UNL1       -0.1926
      9 C         141.3501  139.8997  162.0396 C.ar    1  UNL1        0.1668
     10 N         139.8620  139.7120  162.0575 N.ar    1  UNL1       -0.2824
     11 H         138.1423  136.6280  162.3031 H       1  UNL1        0.1451
     12 H         137.4158  138.1661  162.1840 H       1  UNL1        0.1451
     13 O         144.5562  142.2310  161.8499 O.3     1  UNL1       -0.4509
     14 C         144.5116  143.2650  162.9357 C.3     1  UNL1        0.3095
     15 C         144.3049  142.8469  164.3614 C.3     1  UNL1        0.4381
     16 F         144.0982  142.4290  165.7871 F       1  UNL1       -0.1663
     17 F         145.6625  142.2093  164.3713 F       1  UNL1       -0.1663
     18 F         142.9472  143.4846  164.3515 F       1  UNL1       -0.1663
     19 C         138.8348  140.8020  161.9742 C.3     1  UNL1        0.1438
     20 C         138.0960  141.2321  163.2066 C.3     1  UNL1        0.1561
     21 O         136.5983  141.3151  163.1926 O.3     1  UNL1       -0.3780
     22 H         136.2824  141.6065  164.0622 H       1  UNL1        0.2109
     23 C         138.8546  141.5792  164.4532 C.ar    1  UNL1        0.0167
     24 C         139.4864  142.9323  164.5944 C.ar    1  UNL1       -0.0011
     25 C         140.2450  143.2795  165.8409 C.ar    1  UNL1        0.0037
     26 C         140.3719  142.2735  166.9464 C.ar    1  UNL1        0.0722
     27 C         139.7401  140.9204  166.8052 C.ar    1  UNL1        0.0150
     28 C         138.9815  140.5733  165.5586 C.ar    1  UNL1        0.0559
     29 CL        138.3497  139.2202  165.4174 Cl      1  UNL1       -0.0825
     30 C         141.1305  142.6206  168.1930 C.3     1  UNL1        0.4186
     31 F         141.8892  142.9676  169.4396 F       1  UNL1       -0.1659
     32 F         142.1479  141.5677  167.8669 F       1  UNL1       -0.1659
     33 F         140.1131  143.6734  168.5190 F       1  UNL1       -0.1659
@<TRIPOS>BOND
     1     1     2    1
     2     2     3   ar
     3     3     4   ar
     4     4     5   ar
     5     5     6   ar
     6     6     7   ar
     7     7    13    1
     8    13    14    1
     9    14    15    1
    10    15    16    1
    11    15    17    1
    12    15    18    1
    13     7     8   ar
    14     8     9   ar
    15     9    10   ar
    16    10    19    1
    17    19    20    1
    18    20    21    1
    19    20    23    1
    20    23    24   ar
    21    24    25   ar
    22    25    26   ar
    23    26    30    1
    24    30    31    1
    25    30    32    1
    26    30    33    1
    27    26    27   ar
    28    27    28   ar
    29    28    29    1
    30    10     2   ar
    31    28    23   ar
    32     9     4   ar
    33     1    11    1
    34     1    12    1
    35    21    22    1
@<TRIPOS>MOLECULE
*****
 33 35 0 0 0
SMALL
GASTEIGER

@<TRIPOS>ATOM
      1 N         137.4074  144.4666  162.4400 N.pl3   1  UNL1       -0.3287
      2 C         138.0112  143.0973  162.5420 C.ar    1  UNL1        0.1959
      3 N         137.2593  141.8148  162.7417 N.ar    1  UNL1       -0.2123
      4 C         138.2563  140.6949  162.7853 C.ar    1  UNL1        0.1184
      5 C         138.0951  139.2139  162.9600 C.ar    1  UNL1        0.0271
      6 C         139.3021  138.3233  162.9619 C.ar    1  UNL1        0.0594
      7 C         140.6701  138.9136  162.7891 C.ar    1  UNL1        0.2265
      8 N         140.8313  140.3946  162.6145 N.ar    1  UNL1       -0.1926
      9 C         139.6244  141.2853  162.6125 C.ar    1  UNL1        0.1668
     10 N         139.4729  142.7700  162.4621 N.ar    1  UNL1       -0.2824
     11 H         136.4317  144.5804  162.5047 H       1  UNL1        0.1451
     12 H         137.9869  145.2516  162.3083 H       1  UNL1        0.1451
     13 O         141.8771  138.0229  162.7911 O.3     1  UNL1       -0.4509
     14 C         143.2104  138.5674  163.2104 C.3     1  UNL1        0.3095
     15 C         143.4982  138.8106  164.6623 C.3     1  UNL1        0.4381
     16 F         143.7860  139.0538  166.1142 F       1  UNL1       -0.1663
     17 F         144.5062  139.8562  164.2874 F       1  UNL1       -0.1663
     18 F         142.4902  137.7650  165.0373 F       1  UNL1       -0.1663
     19 C         140.5874  143.7546  162.2663 C.3     1  UNL1        0.1438
     20 C         141.1929  144.4475  163.4509 C.3     1  UNL1        0.1561
     21 O         141.4135  145.9310  163.4201 O.3     1  UNL1       -0.3780
     22 H         141.8097  146.2164  164.2583 H       1  UNL1        0.2109
     23 C         141.5777  143.6572  164.6663 C.ar    1  UNL1        0.0167
     24 C         140.5397  143.3007  165.6888 C.ar    1  UNL1       -0.0011
     25 C         140.9245  142.5103  166.9042 C.ar    1  UNL1        0.0037
     26 C         142.3474  142.0765  167.0971 C.ar    1  UNL1        0.0722
     27 C         143.3854  142.4329  166.0747 C.ar    1  UNL1        0.0150
     28 C         143.0005  143.2233  164.8592 C.ar    1  UNL1        0.0559
     29 CL        144.0385  143.5798  163.8368 Cl      1  UNL1       -0.0825
     30 C         142.7323  141.2861  168.3126 C.3     1  UNL1        0.4186
     31 F         143.1171  140.4956  169.5279 F       1  UNL1       -0.1659
     32 F         141.7782  140.2012  167.9091 F       1  UNL1       -0.1659
     33 F         143.6863  142.3710  168.7159 F       1  UNL1       -0.1659
@<TRIPOS>BOND
     1     1     2    1
     2     2     3   ar
     3     3     4   ar
     4     4     5   ar
     5     5     6   ar
     6     6     7   ar
     7     7    13    1
     8    13    14    1
     9    14    15    1
    10    15    16    1
    11    15    17    1
    12    15    18    1
    13     7     8   ar
    14     8     9   ar
    15     9    10   ar
    16    10    19    1
    17    19    20    1
    18    20    21    1
    19    20    23    1
    20    23    24   ar
    21    24    25   ar
    22    25    26   ar
    23    26    30    1
    24    30    31    1
    25    30    32    1
    26    30    33    1
    27    26    27   ar
    28    27    28   ar
    29    28    29    1
    30    10     2   ar
    31    28    23   ar
    32     9     4   ar
    33     1    11    1
    34     1    12    1
    35    21    22    1
@<TRIPOS>MOLECULE
*****
 33 35 0 0 0
SMALL
GASTEIGER

@<TRIPOS>ATOM
      1 N         140.7664  146.2430  162.8276 N.pl3   1  UNL1       -0.3287
      2 C         141.6058  145.0277  163.0891 C.ar    1  UNL1        0.1959
      3 N         142.8421  144.9758  163.9371 N.ar    1  UNL1       -0.2123
      4 C         143.3567  143.5669  163.9206 C.ar    1  UNL1        0.1184
      5 C         144.5427  142.9239  164.5762 C.ar    1  UNL1        0.0271
      6 C         144.8105  141.4620  164.3736 C.ar    1  UNL1        0.0594
      7 C         143.8923  140.6431  163.5155 C.ar    1  UNL1        0.2265
      8 N         142.7062  141.2862  162.8600 N.ar    1  UNL1       -0.1926
      9 C         142.4384  142.7481  163.0626 C.ar    1  UNL1        0.1668
     10 N         141.3564  143.6509  162.5487 N.ar    1  UNL1       -0.2824
     11 H         141.0129  147.1073  163.2295 H       1  UNL1        0.1451
     12 H         139.9690  146.1764  162.2540 H       1  UNL1        0.1451
     13 O         144.1601  139.1811  163.3130 O.3     1  UNL1       -0.4509
     14 C         143.5192  138.4527  162.1691 C.3     1  UNL1        0.3095
     15 C         142.1637  137.8333  162.3396 C.3     1  UNL1        0.4381
     16 F         140.8082  137.2139  162.5100 F       1  UNL1       -0.1663
     17 F         141.9558  137.8795  160.8548 F       1  UNL1       -0.1663
     18 F         142.3716  137.7870  163.8243 F       1  UNL1       -0.1663
     19 C         140.2237  143.2476  161.6518 C.3     1  UNL1        0.1438
     20 C         138.8842  142.9144  162.2388 C.3     1  UNL1        0.1561
     21 O         137.6973  143.7812  161.9389 O.3     1  UNL1       -0.3780
     22 H         136.9162  143.4282  162.3931 H       1  UNL1        0.2109
     23 C         138.7316  141.7143  163.1257 C.ar    1  UNL1        0.0167
     24 C         138.4878  140.3625  162.5230 C.ar    1  UNL1       -0.0011
     25 C         138.3351  139.1624  163.4099 C.ar    1  UNL1        0.0037
     26 C         138.4262  139.3142  164.8994 C.ar    1  UNL1        0.0722
     27 C         138.6699  140.6660  165.5021 C.ar    1  UNL1        0.0150
     28 C         138.8226  141.8661  164.6152 C.ar    1  UNL1        0.0559
     29 CL        139.0664  143.2179  165.2178 Cl      1  UNL1       -0.0825
     30 C         138.2735  138.1142  165.7864 C.3     1  UNL1        0.4186
     31 F         138.1209  136.9141  166.6733 F       1  UNL1       -0.1659
     32 F         139.1121  137.3078  164.8396 F       1  UNL1       -0.1659
     33 F         137.4349  138.9206  166.7331 F       1  UNL1       -0.1659
@<TRIPOS>BOND
     1     1     2    1
     2     2     3   ar
     3     3     4   ar
     4     4     5   ar
     5     5     6   ar
     6     6     7   ar
     7     7    13    1
     8    13    14    1
     9    14    15    1
    10    15    16    1
    11    15    17    1
    12    15    18    1
    13     7     8   ar
    14     8     9   ar
    15     9    10   ar
    16    10    19    1
    17    19    20    1
    18    20    21    1
    19    20    23    1
    20    23    24   ar
    21    24    25   ar
    22    25    26   ar
    23    26    30    1
    24    30    31    1
    25    30    32    1
    26    30    33    1
    27    26    27   ar
    28    27    28   ar
    29    28    29    1
    30    10     2   ar
    31    28    23   ar
    32     9     4   ar
    33     1    11    1
    34     1    12    1
    35    21    22    1
@<TRIPOS>MOLECULE
*****
 33 35 0 0 0
SMALL
GASTEIGER

@<TRIPOS>ATOM
      1 N         137.4020  139.1380  161.8540 N.pl3   1  UNL1       -0.3287
      2 C         138.0189  140.4633  162.1899 C.ar    1  UNL1        0.1959
      3 N         137.2854  141.7618  162.3509 N.ar    1  UNL1       -0.2123
      4 C         138.2908  142.8239  162.6844 C.ar    1  UNL1        0.1184
      5 C         138.1476  144.2927  162.9527 C.ar    1  UNL1        0.0271
      6 C         139.3593  145.1194  163.2662 C.ar    1  UNL1        0.0594
      7 C         140.7142  144.4774  163.3113 C.ar    1  UNL1        0.2265
      8 N         140.8574  143.0086  163.0429 N.ar    1  UNL1       -0.1926
      9 C         139.6457  142.1818  162.7295 C.ar    1  UNL1        0.1668
     10 N         139.4776  140.7229  162.4239 N.ar    1  UNL1       -0.2824
     11 H         136.4294  139.0680  161.7181 H       1  UNL1        0.1451
     12 H         137.9697  138.3381  161.7694 H       1  UNL1        0.1451
     13 O         141.9259  145.3042  163.6248 O.3     1  UNL1       -0.4509
     14 C         143.2968  144.7180  163.4607 C.3     1  UNL1        0.3095
     15 C         144.0896  144.3145  164.6685 C.3     1  UNL1        0.4381
     16 F         144.8823  143.9110  165.8762 F       1  UNL1       -0.1663
     17 F         143.8911  142.8700  164.3163 F       1  UNL1       -0.1663
     18 F         144.2881  145.7589  165.0207 F       1  UNL1       -0.1663
     19 C         140.5756  139.7027  162.3630 C.3     1  UNL1        0.1438
     20 C         140.9386  138.9174  163.5883 C.3     1  UNL1        0.1561
     21 O         141.5891  137.5727  163.4518 O.3     1  UNL1       -0.3780
     22 H         141.7559  137.2033  164.3331 H       1  UNL1        0.2109
     23 C         140.6511  139.4767  164.9501 C.ar    1  UNL1        0.0167
     24 C         141.5476  140.5283  165.5335 C.ar    1  UNL1       -0.0011
     25 C         141.2602  141.0876  166.8954 C.ar    1  UNL1        0.0037
     26 C         140.0762  140.5954  167.6737 C.ar    1  UNL1        0.0722
     27 C         139.1797  139.5438  167.0903 C.ar    1  UNL1        0.0150
     28 C         139.4672  138.9845  165.7285 C.ar    1  UNL1        0.0559
     29 CL        138.5707  137.9329  165.1450 Cl      1  UNL1       -0.0825
     30 C         139.7887  141.1546  169.0356 C.3     1  UNL1        0.4186
     31 F         139.5013  141.7139  170.3974 F       1  UNL1       -0.1659
     32 F         140.8072  142.2321  168.8081 F       1  UNL1       -0.1659
     33 F         138.7703  140.0771  169.2630 F       1  UNL1       -0.1659
@<TRIPOS>BOND
     1     1     2    1
     2     2     3   ar
     3     3     4   ar
     4     4     5   ar
     5     5     6   ar
     6     6     7   ar
     7     7    13    1
     8    13    14    1
     9    14    15    1
    10    15    16    1
    11    15    17    1
    12    15    18    1
    13     7     8   ar
    14     8     9   ar
    15     9    10   ar
    16    10    19    1
    17    19    20    1
    18    20    21    1
    19    20    23    1
    20    23    24   ar
    21    24    25   ar
    22    25    26   ar
    23    26    30    1
    24    30    31    1
    25    30    32    1
    26    30    33    1
    27    26    27   ar
    28    27    28   ar
    29    28    29    1
    30    10     2   ar
    31    28    23   ar
    32     9     4   ar
    33     1    11    1
    34     1    12    1
    35    21    22    1
@<TRIPOS>MOLECULE
*****
 33 35 0 0 0
SMALL
GASTEIGER

@<TRIPOS>ATOM
      1 N         141.9888  145.8812  163.6054 N.pl3   1  UNL1       -0.3287
      2 C         142.4800  144.4640  163.5815 C.ar    1  UNL1        0.1959
      3 N         143.8991  144.0193  163.7769 N.ar    1  UNL1       -0.2123
      4 C         143.9344  142.5233  163.6742 C.ar    1  UNL1        0.1184
      5 C         145.0584  141.5360  163.7829 C.ar    1  UNL1        0.0271
      6 C         144.7851  140.0688  163.6328 C.ar    1  UNL1        0.0594
      7 C         143.3877  139.5889  163.3738 C.ar    1  UNL1        0.2265
      8 N         142.2637  140.5762  163.2651 N.ar    1  UNL1       -0.1926
      9 C         142.5371  142.0433  163.4153 C.ar    1  UNL1        0.1668
     10 N         141.6382  143.2428  163.3580 N.ar    1  UNL1       -0.2824
     11 H         142.6219  146.6190  163.7604 H       1  UNL1        0.1451
     12 H         141.0334  146.0734  163.4661 H       1  UNL1        0.1451
     13 O         143.1144  138.1216  163.2237 O.3     1  UNL1       -0.4509
     14 C         141.7301  137.6463  162.8956 C.3     1  UNL1        0.3095
     15 C         140.7285  137.4388  163.9929 C.3     1  UNL1        0.4381
     16 F         139.7271  137.2313  165.0901 F       1  UNL1       -0.1663
     17 F         139.6122  137.5878  163.0022 F       1  UNL1       -0.1663
     18 F         141.8449  137.2899  164.9836 F       1  UNL1       -0.1663
     19 C         140.1574  143.2243  163.1192 C.3     1  UNL1        0.1438
     20 C         139.2116  143.1303  164.2795 C.3     1  UNL1        0.1561
     21 O         137.8886  143.8354  164.2278 O.3     1  UNL1       -0.3780
     22 H         137.4033  143.6730  165.0518 H       1  UNL1        0.2109
     23 C         139.5887  142.3313  165.4917 C.ar    1  UNL1        0.0167
     24 C         140.3549  142.9777  166.6075 C.ar    1  UNL1       -0.0011
     25 C         140.7320  142.1786  167.8197 C.ar    1  UNL1        0.0037
     26 C         140.3428  140.7332  167.9161 C.ar    1  UNL1        0.0722
     27 C         139.5766  140.0868  166.8003 C.ar    1  UNL1        0.0150
     28 C         139.1995  140.8859  165.5881 C.ar    1  UNL1        0.0559
     29 CL        138.4333  140.2395  164.4723 Cl      1  UNL1       -0.0825
     30 C         140.7198  139.9341  169.1283 C.3     1  UNL1        0.4186
     31 F         141.0967  139.1350  170.3405 F       1  UNL1       -0.1659
     32 F         139.4077  140.2828  169.7661 F       1  UNL1       -0.1659
     33 F         142.0318  139.5855  168.4904 F       1  UNL1       -0.1659
@<TRIPOS>BOND
     1     1     2    1
     2     2     3   ar
     3     3     4   ar
     4     4     5   ar
     5     5     6   ar
     6     6     7   ar
     7     7    13    1
     8    13    14    1
     9    14    15    1
    10    15    16    1
    11    15    17    1
    12    15    18    1
    13     7     8   ar
    14     8     9   ar
    15     9    10   ar
    16    10    19    1
    17    19    20    1
    18    20    21    1
    19    20    23    1
    20    23    24   ar
    21    24    25   ar
    22    25    26   ar
    23    26    30    1
    24    30    31    1
    25    30    32    1
    26    30    33    1
    27    26    27   ar
    28    27    28   ar
    29    28    29    1
    30    10     2   ar
    31    28    23   ar
    32     9     4   ar
    33     1    11    1
    34     1    12    1
    35    21    22    1
@<TRIPOS>MOLECULE
*****
 33 35 0 0 0
SMALL
GASTEIGER

@<TRIPOS>ATOM
      1 N         141.4156  145.4834  160.4669 N.pl3   1  UNL1       -0.3287
      2 C         141.9249  144.6868  161.6314 C.ar    1  UNL1        0.1959
      3 N         143.2524  143.9930  161.7119 N.ar    1  UNL1       -0.2123
      4 C         143.3441  143.3215  163.0501 C.ar    1  UNL1        0.1184
      5 C         144.4206  142.4922  163.6852 C.ar    1  UNL1        0.0271
      6 C         144.2262  141.9417  165.0669 C.ar    1  UNL1        0.0594
      7 C         142.9554  142.2204  165.8134 C.ar    1  UNL1        0.2265
      8 N         141.8789  143.0497  165.1783 N.ar    1  UNL1       -0.1926
      9 C         142.0733  143.6002  163.7966 C.ar    1  UNL1        0.1668
     10 N         141.1962  144.4440  162.9198 N.ar    1  UNL1       -0.2824
     11 H         141.9708  145.5864  159.6605 H       1  UNL1        0.1451
     12 H         140.5261  145.9033  160.5091 H       1  UNL1        0.1451
     13 O         142.7610  141.6699  167.1952 O.3     1  UNL1       -0.4509
     14 C         142.8761  140.1941  167.4375 C.3     1  UNL1        0.3095
     15 C         142.3825  139.2238  166.4055 C.3     1  UNL1        0.4381
     16 F         141.8889  138.2536  165.3735 F       1  UNL1       -0.1663
     17 F         143.7989  138.8729  166.0580 F       1  UNL1       -0.1663
     18 F         140.9662  139.5747  166.7530 F       1  UNL1       -0.1663
     19 C         139.8302  144.9553  163.2700 C.3     1  UNL1        0.1438
     20 C         138.6252  144.0912  163.0439 C.3     1  UNL1        0.1561
     21 O         137.3986  144.6678  162.4010 O.3     1  UNL1       -0.3780
     22 H         136.7177  143.9808  162.3296 H       1  UNL1        0.2109
     23 C         138.6466  142.6504  163.4605 C.ar    1  UNL1        0.0167
     24 C         138.2557  142.2677  164.8573 C.ar    1  UNL1       -0.0011
     25 C         138.2771  140.8269  165.2739 C.ar    1  UNL1        0.0037
     26 C         138.6893  139.7687  164.2939 C.ar    1  UNL1        0.0722
     27 C         139.0801  140.1514  162.8972 C.ar    1  UNL1        0.0150
     28 C         139.0587  141.5922  162.4805 C.ar    1  UNL1        0.0559
     29 CL        139.4496  141.9749  161.0838 Cl      1  UNL1       -0.0825
     30 C         138.7107  138.3279  164.7105 C.3     1  UNL1        0.4186
     31 F         138.7321  136.8870  165.1270 F       1  UNL1       -0.1659
     32 F         139.4643  137.9781  163.4616 F       1  UNL1       -0.1659
     33 F         137.9571  138.6778  165.9593 F       1  UNL1       -0.1659
@<TRIPOS>BOND
     1     1     2    1
     2     2     3   ar
     3     3     4   ar
     4     4     5   ar
     5     5     6   ar
     6     6     7   ar
     7     7    13    1
     8    13    14    1
     9    14    15    1
    10    15    16    1
    11    15    17    1
    12    15    18    1
    13     7     8   ar
    14     8     9   ar
    15     9    10   ar
    16    10    19    1
    17    19    20    1
    18    20    21    1
    19    20    23    1
    20    23    24   ar
    21    24    25   ar
    22    25    26   ar
    23    26    30    1
    24    30    31    1
    25    30    32    1
    26    30    33    1
    27    26    27   ar
    28    27    28   ar
    29    28    29    1
    30    10     2   ar
    31    28    23   ar
    32     9     4   ar
    33     1    11    1
    34     1    12    1
    35    21    22    1
