@<TRIPOS>MOLECULE
*****
 24 26 0 0 0
SMALL
GASTEIGER

@<TRIPOS>ATOM
      1 C         138.3227  140.4084  164.8481 C.ar    1  UNL1        0.1386
      2 C         138.1867  139.3007  165.8502 C.ar    1  UNL1        0.0369
      3 C         138.9885  139.3332  167.1175 C.ar    1  UNL1        0.0032
      4 C         139.9263  140.4735  167.3827 C.ar    1  UNL1        0.0019
      5 C         140.0623  141.5812  166.3805 C.ar    1  UNL1        0.0032
      6 C         139.2606  141.5487  165.1132 C.ar    1  UNL1        0.0369
      7 C         140.7281  140.5060  168.6500 C.ar    1  UNL1        0.0257
      8 C         142.0093  139.7320  168.7470 C.ar    1  UNL1        0.1201
      9 N         142.8110  139.7645  170.0144 N.ar    1  UNL1       -0.1687
     10 N         142.3315  140.5709  171.1847 N.ar    1  UNL1       -0.2421
     11 C         141.0503  141.3449  171.0877 C.ar    1  UNL1        0.2733
     12 O         140.5708  142.1514  172.2580 O.2     1  UNL1       -0.2658
     13 C         140.2486  141.3124  169.8204 C.ar    1  UNL1        0.0636
     14 H         142.8577  140.5923  172.0165 H       1  UNL1        0.1921
     15 O         137.5210  140.3760  163.5807 O.3     1  UNL1       -0.4754
     16 C         138.0810  139.7160  162.3557 C.3     1  UNL1        0.2068
     17 C         138.4406  138.2600  162.3861 C.3     1  UNL1        0.0646
     18 C         139.8756  137.8393  162.2695 C.3     1  UNL1        0.0759
     19 C         141.6837  140.5533  162.3896 C.3     1  UNL1        0.0173
     20 C         141.6841  139.4480  163.4036 C.3     1  UNL1        0.0576
     21 C         142.5157  139.3961  164.6509 C.3     1  UNL1        0.0174
     22 C         142.1986  138.1165  165.3666 C.3     1  UNL1        0.0187
     23 C         141.1710  137.3776  164.5616 C.3     1  UNL1        0.0721
     24 N         140.8530  138.2005  163.3484 N.3     1  UNL1       -0.2738
@<TRIPOS>BOND
     1    20    19    1
     2    20    21    1
     3    21    22    1
     4    22    23    1
     5    23    24    1
     6    24    18    1
     7    18    17    1
     8    17    16    1
     9    16    15    1
    10    15     1    1
    11     1     2   ar
    12     2     3   ar
    13     3     4   ar
    14     4     7    1
    15     7     8   ar
    16     8     9   ar
    17     9    10   ar
    18    10    11   ar
    19    11    12    2
    20    11    13   ar
    21     4     5   ar
    22     5     6   ar
    23    24    20    1
    24     6     1   ar
    25    13     7   ar
    26    10    14    1
@<TRIPOS>MOLECULE
*****
 24 26 0 0 0
SMALL
GASTEIGER

@<TRIPOS>ATOM
      1 C         138.7243  140.6094  165.2848 C.ar    1  UNL1        0.1386
      2 C         138.8180  139.6710  166.4512 C.ar    1  UNL1        0.0369
      3 C         139.5856  140.0714  167.6761 C.ar    1  UNL1        0.0032
      4 C         140.2593  141.4103  167.7346 C.ar    1  UNL1        0.0019
      5 C         140.1655  142.3488  166.5682 C.ar    1  UNL1        0.0032
      6 C         139.3980  141.9483  165.3433 C.ar    1  UNL1        0.0369
      7 C         141.0268  141.8108  168.9597 C.ar    1  UNL1        0.0257
      8 C         140.3437  141.8458  170.2946 C.ar    1  UNL1        0.1201
      9 N         141.1113  142.2463  171.5196 N.ar    1  UNL1       -0.1687
     10 N         142.5619  142.6117  171.4096 N.ar    1  UNL1       -0.2421
     11 C         143.2450  142.5767  170.0746 C.ar    1  UNL1        0.2733
     12 O         144.6957  142.9421  169.9645 O.2     1  UNL1       -0.2658
     13 C         142.4775  142.1762  168.8496 C.ar    1  UNL1        0.0636
     14 H         143.0657  142.8746  172.2136 H       1  UNL1        0.1921
     15 O         137.9567  140.2089  164.0598 O.3     1  UNL1       -0.4754
     16 C         138.6364  139.4371  162.9678 C.3     1  UNL1        0.2068
     17 C         139.7662  140.0587  162.2014 C.3     1  UNL1        0.0646
     18 C         141.1585  139.5207  162.3496 C.3     1  UNL1        0.0759
     19 C         141.0557  137.1038  164.5398 C.3     1  UNL1        0.0173
     20 C         141.7760  138.4096  164.7010 C.3     1  UNL1        0.0576
     21 C         142.5755  138.8337  165.8972 C.3     1  UNL1        0.0174
     22 C         143.1169  140.2069  165.6297 C.3     1  UNL1        0.0187
     23 C         142.6519  140.6313  164.2683 C.3     1  UNL1        0.0721
     24 N         141.8232  139.5206  163.6942 N.3     1  UNL1       -0.2738
@<TRIPOS>BOND
     1    20    19    1
     2    20    21    1
     3    21    22    1
     4    22    23    1
     5    23    24    1
     6    24    18    1
     7    18    17    1
     8    17    16    1
     9    16    15    1
    10    15     1    1
    11     1     2   ar
    12     2     3   ar
    13     3     4   ar
    14     4     7    1
    15     7     8   ar
    16     8     9   ar
    17     9    10   ar
    18    10    11   ar
    19    11    12    2
    20    11    13   ar
    21     4     5   ar
    22     5     6   ar
    23    24    20    1
    24     6     1   ar
    25    13     7   ar
    26    10    14    1
@<TRIPOS>MOLECULE
*****
 24 26 0 0 0
SMALL
GASTEIGER

@<TRIPOS>ATOM
      1 C         140.0564  138.4118  165.1951 C.ar    1  UNL1        0.1386
      2 C         141.3756  138.9217  165.6946 C.ar    1  UNL1        0.0369
      3 C         141.4392  139.7222  166.9615 C.ar    1  UNL1        0.0032
      4 C         140.1835  140.0127  167.7290 C.ar    1  UNL1        0.0019
      5 C         138.8643  139.5027  167.2295 C.ar    1  UNL1        0.0032
      6 C         138.8007  138.7023  165.9625 C.ar    1  UNL1        0.0369
      7 C         140.2472  140.8132  168.9960 C.ar    1  UNL1        0.0257
      8 C         140.3819  140.1163  170.3174 C.ar    1  UNL1        0.1201
      9 N         140.4455  140.9169  171.5844 N.ar    1  UNL1       -0.1687
     10 N         140.3744  142.4142  171.5299 N.ar    1  UNL1       -0.2421
     11 C         140.2397  143.1110  170.2083 C.ar    1  UNL1        0.2733
     12 O         140.1686  144.6083  170.1538 O.2     1  UNL1       -0.2658
     13 C         140.1761  142.3105  168.9414 C.ar    1  UNL1        0.0636
     14 H         140.4162  142.9396  172.3614 H       1  UNL1        0.1921
     15 O         139.9927  137.6113  163.9281 O.3     1  UNL1       -0.4754
     16 C         138.8118  137.7475  163.0134 C.3     1  UNL1        0.2068
     17 C         138.9607  138.4481  161.6954 C.3     1  UNL1        0.0646
     18 C         138.5520  139.8849  161.5594 C.3     1  UNL1        0.0759
     19 C         141.3290  141.1338  162.7333 C.3     1  UNL1        0.0173
     20 C         139.9516  141.3878  163.2703 C.3     1  UNL1        0.0576
     21 C         139.6089  142.2605  164.4411 C.3     1  UNL1        0.0174
     22 C         138.1206  142.2257  164.6253 C.3     1  UNL1        0.0187
     23 C         137.5436  141.3316  163.5681 C.3     1  UNL1        0.0721
     24 N         138.6752  140.8137  162.7307 N.3     1  UNL1       -0.2738
@<TRIPOS>BOND
     1    20    19    1
     2    20    21    1
     3    21    22    1
     4    22    23    1
     5    23    24    1
     6    24    18    1
     7    18    17    1
     8    17    16    1
     9    16    15    1
    10    15     1    1
    11     1     2   ar
    12     2     3   ar
    13     3     4   ar
    14     4     7    1
    15     7     8   ar
    16     8     9   ar
    17     9    10   ar
    18    10    11   ar
    19    11    12    2
    20    11    13   ar
    21     4     5   ar
    22     5     6   ar
    23    24    20    1
    24     6     1   ar
    25    13     7   ar
    26    10    14    1
@<TRIPOS>MOLECULE
*****
 24 26 0 0 0
SMALL
GASTEIGER

@<TRIPOS>ATOM
      1 C         142.1750  139.8320  164.7201 C.ar    1  UNL1        0.1386
      2 C         142.2185  138.9665  165.9444 C.ar    1  UNL1        0.0369
      3 C         141.7925  139.5219  167.2710 C.ar    1  UNL1        0.0032
      4 C         141.3230  140.9428  167.3733 C.ar    1  UNL1        0.0019
      5 C         141.2795  141.8084  166.1490 C.ar    1  UNL1        0.0032
      6 C         141.7056  141.2529  164.8224 C.ar    1  UNL1        0.0369
      7 C         140.8970  141.4983  168.7000 C.ar    1  UNL1        0.0257
      8 C         140.7140  140.5815  169.8731 C.ar    1  UNL1        0.1201
      9 N         140.2880  141.1369  171.1998 N.ar    1  UNL1       -0.1687
     10 N         140.0450  142.6091  171.3534 N.ar    1  UNL1       -0.2421
     11 C         140.2280  143.5259  170.1803 C.ar    1  UNL1        0.2733
     12 O         139.9850  144.9981  170.3339 O.2     1  UNL1       -0.2658
     13 C         140.6540  142.9704  168.8536 C.ar    1  UNL1        0.0636
     14 H         139.7653  142.9737  172.2241 H       1  UNL1        0.1921
     15 O         142.6011  139.2766  163.3934 O.3     1  UNL1       -0.4754
     16 C         141.9786  138.0146  162.8738 C.3     1  UNL1        0.2068
     17 C         140.7571  138.0830  162.0058 C.3     1  UNL1        0.0646
     18 C         139.4161  137.7142  162.5677 C.3     1  UNL1        0.0759
     19 C         138.4369  140.7924  163.0320 C.3     1  UNL1        0.0173
     20 C         138.5086  139.7223  164.0806 C.3     1  UNL1        0.0576
     21 C         138.1427  139.8792  165.5268 C.3     1  UNL1        0.0174
     22 C         138.3667  138.5613  166.2073 C.3     1  UNL1        0.0187
     23 C         138.8709  137.5899  165.1816 C.3     1  UNL1        0.0721
     24 N         138.9587  138.3074  163.8673 N.3     1  UNL1       -0.2738
@<TRIPOS>BOND
     1    20    19    1
     2    20    21    1
     3    21    22    1
     4    22    23    1
     5    23    24    1
     6    24    18    1
     7    18    17    1
     8    17    16    1
     9    16    15    1
    10    15     1    1
    11     1     2   ar
    12     2     3   ar
    13     3     4   ar
    14     4     7    1
    15     7     8   ar
    16     8     9   ar
    17     9    10   ar
    18    10    11   ar
    19    11    12    2
    20    11    13   ar
    21     4     5   ar
    22     5     6   ar
    23    24    20    1
    24     6     1   ar
    25    13     7   ar
    26    10    14    1
@<TRIPOS>MOLECULE
*****
 24 26 0 0 0
SMALL
GASTEIGER

@<TRIPOS>ATOM
      1 C         141.7627  138.4638  165.3426 C.ar    1  UNL1        0.1386
      2 C         142.8516  138.7080  166.3450 C.ar    1  UNL1        0.0369
      3 C         142.5652  139.5021  167.5848 C.ar    1  UNL1        0.0032
      4 C         141.1901  140.0521  167.8223 C.ar    1  UNL1        0.0019
      5 C         140.1012  139.8080  166.8199 C.ar    1  UNL1        0.0032
      6 C         140.3876  139.0138  165.5801 C.ar    1  UNL1        0.0369
      7 C         140.9037  140.8463  169.0622 C.ar    1  UNL1        0.0257
      8 C         140.8241  140.1576  170.3923 C.ar    1  UNL1        0.1201
      9 N         140.5378  140.9518  171.6323 N.ar    1  UNL1       -0.1687
     10 N         140.3311  142.4347  171.5420 N.ar    1  UNL1       -0.2421
     11 C         140.4108  143.1235  170.2118 C.ar    1  UNL1        0.2733
     12 O         140.2042  144.6064  170.1215 O.2     1  UNL1       -0.2658
     13 C         140.6971  142.3293  168.9720 C.ar    1  UNL1        0.0636
     14 H         140.1432  142.9560  172.3558 H       1  UNL1        0.1921
     15 O         142.0491  137.6696  164.1027 O.3     1  UNL1       -0.4754
     16 C         142.4724  138.3690  162.8451 C.3     1  UNL1        0.2068
     17 C         143.7763  139.1094  162.8012 C.3     1  UNL1        0.0646
     18 C         143.7859  140.6057  162.6969 C.3     1  UNL1        0.0759
     19 C         140.7652  141.7664  163.1180 C.3     1  UNL1        0.0173
     20 C         141.9267  141.9744  164.0440 C.3     1  UNL1        0.0576
     21 C         141.9036  142.7525  165.3262 C.3     1  UNL1        0.0174
     22 C         143.2779  142.6999  165.9252 C.3     1  UNL1        0.0187
     23 C         144.1503  141.8893  165.0131 C.3     1  UNL1        0.0721
     24 N         143.3152  141.4409  163.8505 N.3     1  UNL1       -0.2738
@<TRIPOS>BOND
     1    20    19    1
     2    20    21    1
     3    21    22    1
     4    22    23    1
     5    23    24    1
     6    24    18    1
     7    18    17    1
     8    17    16    1
     9    16    15    1
    10    15     1    1
    11     1     2   ar
    12     2     3   ar
    13     3     4   ar
    14     4     7    1
    15     7     8   ar
    16     8     9   ar
    17     9    10   ar
    18    10    11   ar
    19    11    12    2
    20    11    13   ar
    21     4     5   ar
    22     5     6   ar
    23    24    20    1
    24     6     1   ar
    25    13     7   ar
    26    10    14    1
@<TRIPOS>MOLECULE
*****
 24 26 0 0 0
SMALL
GASTEIGER

@<TRIPOS>ATOM
      1 C         143.0517  143.4304  164.6105 C.ar    1  UNL1        0.1386
      2 C         143.8119  142.8271  165.7542 C.ar    1  UNL1        0.0369
      3 C         143.0723  142.2387  166.9189 C.ar    1  UNL1        0.0032
      4 C         141.5725  142.2535  166.9400 C.ar    1  UNL1        0.0019
      5 C         140.8123  142.8568  165.7963 C.ar    1  UNL1        0.0032
      6 C         141.5519  143.4453  164.6315 C.ar    1  UNL1        0.0369
      7 C         140.8329  141.6651  168.1048 C.ar    1  UNL1        0.0257
      8 C         139.9111  140.5002  167.8969 C.ar    1  UNL1        0.1201
      9 N         139.1715  139.9118  169.0617 N.ar    1  UNL1       -0.1687
     10 N         139.3538  140.4882  170.4345 N.ar    1  UNL1       -0.2421
     11 C         140.2757  141.6531  170.6424 C.ar    1  UNL1        0.2733
     12 O         140.4581  142.2295  172.0152 O.2     1  UNL1       -0.2658
     13 C         141.0153  142.2415  169.4776 C.ar    1  UNL1        0.0636
     14 H         138.8684  140.1020  171.1990 H       1  UNL1        0.1921
     15 O         143.7913  144.0189  163.4456 O.3     1  UNL1       -0.4754
     16 C         144.0630  143.1831  162.2301 C.3     1  UNL1        0.2068
     17 C         145.0790  142.0810  162.2895 C.3     1  UNL1        0.0646
     18 C         144.6374  140.6493  162.2184 C.3     1  UNL1        0.0759
     19 C         141.4249  140.3768  162.7237 C.3     1  UNL1        0.0173
     20 C         142.5064  139.8813  163.6374 C.3     1  UNL1        0.0576
     21 C         142.3010  139.1735  164.9439 C.3     1  UNL1        0.0174
     22 C         143.6507  138.8613  165.5191 C.3     1  UNL1        0.0187
     23 C         144.6902  139.3761  164.5682 C.3     1  UNL1        0.0721
     24 N         143.9830  140.0065  163.4052 N.3     1  UNL1       -0.2738
@<TRIPOS>BOND
     1    20    19    1
     2    20    21    1
     3    21    22    1
     4    22    23    1
     5    23    24    1
     6    24    18    1
     7    18    17    1
     8    17    16    1
     9    16    15    1
    10    15     1    1
    11     1     2   ar
    12     2     3   ar
    13     3     4   ar
    14     4     7    1
    15     7     8   ar
    16     8     9   ar
    17     9    10   ar
    18    10    11   ar
    19    11    12    2
    20    11    13   ar
    21     4     5   ar
    22     5     6   ar
    23    24    20    1
    24     6     1   ar
    25    13     7   ar
    26    10    14    1
@<TRIPOS>MOLECULE
*****
 24 26 0 0 0
SMALL
GASTEIGER

@<TRIPOS>ATOM
      1 C         140.5230  142.4505  164.3430 C.ar    1  UNL1        0.1386
      2 C         139.9846  143.2395  165.4995 C.ar    1  UNL1        0.0369
      3 C         140.3501  142.8572  166.9031 C.ar    1  UNL1        0.0032
      4 C         141.2540  141.6859  167.1502 C.ar    1  UNL1        0.0019
      5 C         141.7924  140.8969  165.9937 C.ar    1  UNL1        0.0032
      6 C         141.4269  141.2792  164.5901 C.ar    1  UNL1        0.0369
      7 C         141.6195  141.3035  168.5539 C.ar    1  UNL1        0.0257
      8 C         142.7118  140.3053  168.7991 C.ar    1  UNL1        0.1201
      9 N         143.0773  139.9229  170.2028 N.ar    1  UNL1       -0.1687
     10 N         142.3503  140.5390  171.3613 N.ar    1  UNL1       -0.2421
     11 C         141.2579  141.5373  171.1161 C.ar    1  UNL1        0.2733
     12 O         140.5310  142.1533  172.2746 O.2     1  UNL1       -0.2658
     13 C         140.8925  141.9196  169.7124 C.ar    1  UNL1        0.0636
     14 H         142.5902  140.2881  172.2826 H       1  UNL1        0.1921
     15 O         140.1576  142.8328  162.9393 O.3     1  UNL1       -0.4754
     16 C         138.7216  143.0692  162.5760 C.3     1  UNL1        0.2068
     17 C         137.6551  142.1525  163.0982 C.3     1  UNL1        0.0646
     18 C         137.7373  140.6785  162.8329 C.3     1  UNL1        0.0759
     19 C         139.2699  137.8351  162.3690 C.3     1  UNL1        0.0173
     20 C         138.9188  138.4413  163.6953 C.3     1  UNL1        0.0576
     21 C         139.2105  137.8470  165.0413 C.3     1  UNL1        0.0174
     22 C         138.6863  138.7867  166.0864 C.3     1  UNL1        0.0187
     23 C         138.0706  139.9617  165.3863 C.3     1  UNL1        0.0721
     24 N         138.2143  139.7483  163.9086 N.3     1  UNL1       -0.2738
@<TRIPOS>BOND
     1    20    19    1
     2    20    21    1
     3    21    22    1
     4    22    23    1
     5    23    24    1
     6    24    18    1
     7    18    17    1
     8    17    16    1
     9    16    15    1
    10    15     1    1
    11     1     2   ar
    12     2     3   ar
    13     3     4   ar
    14     4     7    1
    15     7     8   ar
    16     8     9   ar
    17     9    10   ar
    18    10    11   ar
    19    11    12    2
    20    11    13   ar
    21     4     5   ar
    22     5     6   ar
    23    24    20    1
    24     6     1   ar
    25    13     7   ar
    26    10    14    1
@<TRIPOS>MOLECULE
*****
 24 26 0 0 0
SMALL
GASTEIGER

@<TRIPOS>ATOM
      1 C         138.5706  139.9221  164.5970 C.ar    1  UNL1        0.1386
      2 C         138.1067  139.0141  165.6970 C.ar    1  UNL1        0.0369
      3 C         138.6801  139.1529  167.0761 C.ar    1  UNL1        0.0032
      4 C         139.7175  140.1998  167.3551 C.ar    1  UNL1        0.0019
      5 C         140.1814  141.1078  166.2551 C.ar    1  UNL1        0.0032
      6 C         139.6080  140.9690  164.8760 C.ar    1  UNL1        0.0369
      7 C         140.2910  140.3385  168.7342 C.ar    1  UNL1        0.0257
      8 C         139.5024  141.0269  169.8086 C.ar    1  UNL1        0.1201
      9 N         140.0759  141.1657  171.1877 N.ar    1  UNL1       -0.1687
     10 N         141.4379  140.6161  171.4924 N.ar    1  UNL1       -0.2421
     11 C         142.2264  139.9277  170.4180 C.ar    1  UNL1        0.2733
     12 O         143.5885  139.3781  170.7227 O.2     1  UNL1       -0.2658
     13 C         141.6530  139.7889  169.0389 C.ar    1  UNL1        0.0636
     14 H         141.8143  140.7071  172.3976 H       1  UNL1        0.1921
     15 O         137.9971  139.7834  163.2178 O.3     1  UNL1       -0.4754
     16 C         138.4575  138.6714  162.3226 C.3     1  UNL1        0.2068
     17 C         139.8965  138.5901  161.9068 C.3     1  UNL1        0.0646
     18 C         140.8097  137.5933  162.5568 C.3     1  UNL1        0.0759
     19 C         143.6225  139.1454  161.9836 C.3     1  UNL1        0.0173
     20 C         143.0881  138.7574  163.3304 C.3     1  UNL1        0.0576
     21 C         143.7529  139.0147  164.6502 C.3     1  UNL1        0.0174
     22 C         142.8708  138.4603  165.7294 C.3     1  UNL1        0.0187
     23 C         141.6609  137.8603  165.0765 C.3     1  UNL1        0.0721
     24 N         141.7952  138.0440  163.5939 N.3     1  UNL1       -0.2738
@<TRIPOS>BOND
     1    20    19    1
     2    20    21    1
     3    21    22    1
     4    22    23    1
     5    23    24    1
     6    24    18    1
     7    18    17    1
     8    17    16    1
     9    16    15    1
    10    15     1    1
    11     1     2   ar
    12     2     3   ar
    13     3     4   ar
    14     4     7    1
    15     7     8   ar
    16     8     9   ar
    17     9    10   ar
    18    10    11   ar
    19    11    12    2
    20    11    13   ar
    21     4     5   ar
    22     5     6   ar
    23    24    20    1
    24     6     1   ar
    25    13     7   ar
    26    10    14    1
@<TRIPOS>MOLECULE
*****
 24 26 0 0 0
SMALL
GASTEIGER

@<TRIPOS>ATOM
      1 C         142.9582  139.2227  164.7932 C.ar    1  UNL1        0.1386
      2 C         142.8192  140.7152  164.8481 C.ar    1  UNL1        0.0369
      3 C         142.7200  141.4110  166.1732 C.ar    1  UNL1        0.0032
      4 C         142.7598  140.6143  167.4435 C.ar    1  UNL1        0.0019
      5 C         142.8989  139.1218  167.3886 C.ar    1  UNL1        0.0032
      6 C         142.9981  138.4260  166.0635 C.ar    1  UNL1        0.0369
      7 C         142.6606  141.3101  168.7686 C.ar    1  UNL1        0.0257
      8 C         143.5609  142.4699  169.0760 C.ar    1  UNL1        0.1201
      9 N         143.4617  143.1657  170.4012 N.ar    1  UNL1       -0.1687
     10 N         142.4622  142.7018  171.4189 N.ar    1  UNL1       -0.2421
     11 C         141.5619  141.5420  171.1115 C.ar    1  UNL1        0.2733
     12 O         140.5624  141.0780  172.1293 O.2     1  UNL1       -0.2658
     13 C         141.6612  140.8462  169.7864 C.ar    1  UNL1        0.0636
     14 H         142.3970  143.1585  172.2887 H       1  UNL1        0.1921
     15 O         143.0574  138.5268  163.4680 O.3     1  UNL1       -0.4754
     16 C         141.8149  138.2294  162.6823 C.3     1  UNL1        0.2068
     17 C         140.8363  137.2093  163.1842 C.3     1  UNL1        0.0646
     18 C         139.7977  137.5994  164.1937 C.3     1  UNL1        0.0759
     19 C         139.3260  139.8638  166.4957 C.3     1  UNL1        0.0173
     20 C         138.8173  139.9206  165.0858 C.3     1  UNL1        0.0576
     21 C         138.0024  141.0281  164.4865 C.3     1  UNL1        0.0174
     22 C         137.7156  140.6719  163.0578 C.3     1  UNL1        0.0187
     23 C         138.3532  139.3441  162.7743 C.3     1  UNL1        0.0721
     24 N         139.0341  138.8797  164.0277 N.3     1  UNL1       -0.2738
@<TRIPOS>BOND
     1    20    19    1
     2    20    21    1
     3    21    22    1
     4    22    23    1
     5    23    24    1
     6    24    18    1
     7    18    17    1
     8    17    16    1
     9    16    15    1
    10    15     1    1
    11     1     2   ar
    12     2     3   ar
    13     3     4   ar
    14     4     7    1
    15     7     8   ar
    16     8     9   ar
    17     9    10   ar
    18    10    11   ar
    19    11    12    2
    20    11    13   ar
    21     4     5   ar
    22     5     6   ar
    23    24    20    1
    24     6     1   ar
    25    13     7   ar
    26    10    14    1
