@<TRIPOS>MOLECULE
*****
 37 40 0 0 0
SMALL
GASTEIGER

@<TRIPOS>ATOM
      1 C         141.3801  141.0260  167.8449 C.3     1  UNL1        0.0690
      2 C         142.3603  139.9919  168.3138 C.3     1  UNL1        0.0485
      3 C         142.0756  139.1959  169.5529 C.3     1  UNL1        0.1436
      4 O         140.8105  139.4340  170.3230 O.3     1  UNL1       -0.3537
      5 C         139.8303  140.4680  169.8541 C.3     1  UNL1        0.1436
      6 C         140.1151  141.2640  168.6150 C.3     1  UNL1        0.0485
      7 N         142.4316  141.1636  166.7839 N.3     1  UNL1       -0.2710
      8 C         143.0173  142.5104  166.4788 C.3     1  UNL1        0.0896
      9 C         144.0687  142.6480  165.4179 C.3     1  UNL1        0.0898
     10 N         144.5343  141.4389  164.6621 N.3     1  UNL1       -0.2672
     11 C         143.9486  140.0922  164.9672 C.3     1  UNL1        0.0898
     12 C         142.8972  139.9545  166.0281 C.3     1  UNL1        0.0896
     13 C         145.5858  141.5766  163.6011 C.3     1  UNL1        0.1201
     14 C         145.2062  142.0342  162.2240 C.3     1  UNL1        0.2226
     15 O         144.9257  143.4851  161.9665 O.3     1  UNL1       -0.4740
     16 C         143.5488  144.0348  162.1945 C.ar    1  UNL1        0.1386
     17 C         143.2905  144.9547  163.3508 C.ar    1  UNL1        0.0369
     18 C         141.9136  145.5044  163.5788 C.ar    1  UNL1        0.0031
     19 C         140.7949  145.1341  162.6505 C.ar    1  UNL1        0.0002
     20 C         141.0533  144.2141  161.4943 C.ar    1  UNL1        0.0031
     21 C         142.4303  143.6645  161.2663 C.ar    1  UNL1        0.0369
     22 C         140.7651  142.1078  167.0074 C.3     1  UNL1        0.1143
     23 C         138.8723  142.8609  165.3950 C.2     1  UNL1        0.2304
     24 O         139.1197  144.2913  165.7726 O.2     1  UNL1       -0.2745
     25 N         139.6950  141.7691  166.0124 N.am    1  UNL1       -0.2425
     26 C         139.4475  140.3386  165.6348 C.ar    1  UNL1        0.1373
     27 C         138.4766  139.5118  166.4245 C.ar    1  UNL1        0.0347
     28 C         138.2291  138.0813  166.0469 C.ar    1  UNL1        0.0044
     29 C         138.9526  137.4778  164.8797 C.ar    1  UNL1        0.0232
     30 C         139.9235  138.3047  164.0901 C.ar    1  UNL1        0.1540
     31 N         140.1710  139.7352  164.4677 N.ar    1  UNL1       -0.2263
     32 C         140.6471  137.7012  162.9229 C.3     1  UNL1        0.4349
     33 F         141.3706  137.0977  161.7557 F       1  UNL1       -0.1644
     34 F         139.3456  137.5551  162.1917 F       1  UNL1       -0.1644
     35 F         141.9486  137.8473  163.6542 F       1  UNL1       -0.1644
     36 C         138.0806  142.6373  162.9305 C.3     1  UNL1        0.0101
     37 C         137.8021  142.5222  164.3999 C.3     1  UNL1        0.0857
@<TRIPOS>BOND
     1    36    37    1
     2    37    23    1
     3    23    24    2
     4    23    25   am
     5    25    22    1
     6    22     1    1
     7     1     7    1
     8     7     8    1
     9     8     9    1
    10     9    10    1
    11    10    13    1
    12    13    14    1
    13    14    15    1
    14    15    16    1
    15    16    17   ar
    16    17    18   ar
    17    18    19   ar
    18    19    20   ar
    19    20    21   ar
    20    10    11    1
    21    11    12    1
    22     1     2    1
    23     2     3    1
    24     3     4    1
    25     4     5    1
    26     5     6    1
    27    25    26    1
    28    26    27   ar
    29    27    28   ar
    30    28    29   ar
    31    29    30   ar
    32    30    32    1
    33    32    33    1
    34    32    34    1
    35    32    35    1
    36    30    31   ar
    37     6     1    1
    38    31    26   ar
    39    12     7    1
    40    21    16   ar
@<TRIPOS>MOLECULE
*****
 37 40 0 0 0
SMALL
GASTEIGER

@<TRIPOS>ATOM
      1 C         142.5684  139.5368  161.6104 C.3     1  UNL1        0.0690
      2 C         141.7597  138.5423  160.8314 C.3     1  UNL1        0.0485
      3 C         142.1242  138.2275  159.4108 C.3     1  UNL1        0.1436
      4 O         143.2974  138.9073  158.7693 O.3     1  UNL1       -0.3537
      5 C         144.1061  139.9018  159.5483 C.3     1  UNL1        0.1436
      6 C         143.7416  140.2166  160.9689 C.3     1  UNL1        0.0485
      7 N         141.5536  139.1566  162.6477 N.3     1  UNL1       -0.2710
      8 C         140.0896  139.2725  162.3425 C.3     1  UNL1        0.0896
      9 C         139.0749  138.8923  163.3797 C.3     1  UNL1        0.0898
     10 N         139.5243  138.3962  164.7221 N.3     1  UNL1       -0.2672
     11 C         140.9883  138.2803  165.0272 C.3     1  UNL1        0.0898
     12 C         142.0030  138.6605  163.9900 C.3     1  UNL1        0.0896
     13 C         138.5096  138.0160  165.7593 C.3     1  UNL1        0.1201
     14 C         138.0525  139.0280  166.7677 C.3     1  UNL1        0.2226
     15 O         138.7639  139.1508  168.0826 O.3     1  UNL1       -0.4740
     16 C         139.3944  140.4540  168.4753 C.ar    1  UNL1        0.1386
     17 C         139.2870  140.9431  169.8892 C.ar    1  UNL1        0.0369
     18 C         139.9175  142.2463  170.2819 C.ar    1  UNL1        0.0031
     19 C         140.6554  143.0604  169.2607 C.ar    1  UNL1        0.0002
     20 C         140.7628  142.5712  167.8467 C.ar    1  UNL1        0.0031
     21 C         140.1323  141.2680  167.4541 C.ar    1  UNL1        0.0369
     22 C         143.0246  140.3994  162.7497 C.3     1  UNL1        0.1143
     23 C         144.1494  142.7365  162.8990 C.2     1  UNL1        0.2304
     24 O         145.4512  142.0867  163.2639 O.2     1  UNL1       -0.2745
     25 N         142.9361  141.8928  162.6419 N.am    1  UNL1       -0.2425
     26 C         141.6343  142.5427  162.2770 C.ar    1  UNL1        0.1373
     27 C         141.3013  142.7980  160.8369 C.ar    1  UNL1        0.0347
     28 C         139.9995  143.4479  160.4720 C.ar    1  UNL1        0.0044
     29 C         139.0309  143.8423  161.5472 C.ar    1  UNL1        0.0232
     30 C         139.3639  143.5869  162.9873 C.ar    1  UNL1        0.1540
     31 N         140.6656  142.9371  163.3522 N.ar    1  UNL1       -0.2263
     32 C         138.3952  143.9813  164.0625 C.3     1  UNL1        0.4349
     33 F         137.4264  144.3757  165.1377 F       1  UNL1       -0.1644
     34 F         139.4777  143.8369  165.0907 F       1  UNL1       -0.1644
     35 F         137.3127  144.1257  163.0343 F       1  UNL1       -0.1644
     36 C         143.5942  145.0404  163.9641 C.3     1  UNL1        0.0101
     37 C         144.0610  144.2300  162.7913 C.3     1  UNL1        0.0857
@<TRIPOS>BOND
     1    36    37    1
     2    37    23    1
     3    23    24    2
     4    23    25   am
     5    25    22    1
     6    22     1    1
     7     1     7    1
     8     7     8    1
     9     8     9    1
    10     9    10    1
    11    10    13    1
    12    13    14    1
    13    14    15    1
    14    15    16    1
    15    16    17   ar
    16    17    18   ar
    17    18    19   ar
    18    19    20   ar
    19    20    21   ar
    20    10    11    1
    21    11    12    1
    22     1     2    1
    23     2     3    1
    24     3     4    1
    25     4     5    1
    26     5     6    1
    27    25    26    1
    28    26    27   ar
    29    27    28   ar
    30    28    29   ar
    31    29    30   ar
    32    30    32    1
    33    32    33    1
    34    32    34    1
    35    32    35    1
    36    30    31   ar
    37     6     1    1
    38    31    26   ar
    39    12     7    1
    40    21    16   ar
@<TRIPOS>MOLECULE
*****
 37 40 0 0 0
SMALL
GASTEIGER

@<TRIPOS>ATOM
      1 C         141.7471  139.2887  165.7628 C.3     1  UNL1        0.0690
      2 C         141.6306  140.0062  167.0748 C.3     1  UNL1        0.0485
      3 C         142.5064  139.6102  168.2265 C.3     1  UNL1        0.1436
      4 O         143.4987  138.4968  168.0660 O.3     1  UNL1       -0.3537
      5 C         143.6152  137.7794  166.7539 C.3     1  UNL1        0.1436
      6 C         142.7394  138.1753  165.6022 C.3     1  UNL1        0.0485
      7 N         140.6647  140.2715  165.4270 N.3     1  UNL1       -0.2710
      8 C         139.4859  139.8378  164.6072 C.3     1  UNL1        0.0896
      9 C         138.4035  140.8206  164.2715 C.3     1  UNL1        0.0898
     10 N         138.5001  142.2370  164.7557 N.3     1  UNL1       -0.2672
     11 C         139.6789  142.6707  165.5755 C.3     1  UNL1        0.0898
     12 C         140.7613  141.6879  165.9112 C.3     1  UNL1        0.0896
     13 C         137.4177  143.2198  164.4200 C.3     1  UNL1        0.1201
     14 C         137.6018  144.1782  163.2809 C.3     1  UNL1        0.2226
     15 O         138.9151  144.8786  163.0948 O.3     1  UNL1       -0.4740
     16 C         139.7993  144.5197  161.9375 C.ar    1  UNL1        0.1386
     17 C         140.3490  145.5976  161.0510 C.ar    1  UNL1        0.0369
     18 C         141.2331  145.2386  159.8937 C.ar    1  UNL1        0.0031
     19 C         141.5676  143.8016  159.6229 C.ar    1  UNL1        0.0002
     20 C         141.0179  142.7237  160.5094 C.ar    1  UNL1        0.0031
     21 C         140.1337  143.0827  161.6667 C.ar    1  UNL1        0.0369
     22 C         141.4877  138.9125  164.3340 C.3     1  UNL1        0.1143
     23 C         142.5903  138.3662  162.0459 C.2     1  UNL1        0.2304
     24 O         141.6427  137.2179  161.8634 O.2     1  UNL1       -0.2745
     25 N         142.5128  139.2135  163.2812 N.am    1  UNL1       -0.2425
     26 C         143.4605  140.3619  163.4637 C.ar    1  UNL1        0.1373
     27 C         144.8961  140.1014  163.8120 C.ar    1  UNL1        0.0347
     28 C         145.8438  141.2497  163.9945 C.ar    1  UNL1        0.0044
     29 C         145.3558  142.6584  163.8287 C.ar    1  UNL1        0.0232
     30 C         143.9203  142.9188  163.4803 C.ar    1  UNL1        0.1540
     31 N         142.9726  141.7706  163.2978 N.ar    1  UNL1       -0.2263
     32 C         143.4324  144.3276  163.3145 C.3     1  UNL1        0.4349
     33 F         142.9445  145.7363  163.1486 F       1  UNL1       -0.1644
     34 F         144.6231  144.6389  162.4570 F       1  UNL1       -0.1644
     35 F         142.2417  144.0161  164.1719 F       1  UNL1       -0.1644
     36 C         143.3190  139.6771  159.9244 C.3     1  UNL1        0.0101
     37 C         143.6155  138.6671  160.9930 C.3     1  UNL1        0.0857
@<TRIPOS>BOND
     1    36    37    1
     2    37    23    1
     3    23    24    2
     4    23    25   am
     5    25    22    1
     6    22     1    1
     7     1     7    1
     8     7     8    1
     9     8     9    1
    10     9    10    1
    11    10    13    1
    12    13    14    1
    13    14    15    1
    14    15    16    1
    15    16    17   ar
    16    17    18   ar
    17    18    19   ar
    18    19    20   ar
    19    20    21   ar
    20    10    11    1
    21    11    12    1
    22     1     2    1
    23     2     3    1
    24     3     4    1
    25     4     5    1
    26     5     6    1
    27    25    26    1
    28    26    27   ar
    29    27    28   ar
    30    28    29   ar
    31    29    30   ar
    32    30    32    1
    33    32    33    1
    34    32    34    1
    35    32    35    1
    36    30    31   ar
    37     6     1    1
    38    31    26   ar
    39    12     7    1
    40    21    16   ar
@<TRIPOS>MOLECULE
*****
 37 40 0 0 0
SMALL
GASTEIGER

@<TRIPOS>ATOM
      1 C         142.4185  140.1600  164.3842 C.3     1  UNL1        0.0690
      2 C         143.8248  140.6123  164.1240 C.3     1  UNL1        0.0485
      3 C         144.9795  139.8084  164.6438 C.3     1  UNL1        0.1436
      4 O         144.7280  138.5521  165.4239 O.3     1  UNL1       -0.3537
      5 C         143.3217  138.0998  165.6842 C.3     1  UNL1        0.1436
      6 C         142.1670  138.9037  165.1644 C.3     1  UNL1        0.0485
      7 N         142.1491  141.4099  163.5999 N.3     1  UNL1       -0.2710
      8 C         141.7971  141.3209  162.1445 C.3     1  UNL1        0.0896
      9 C         141.5277  142.5708  161.3603 C.3     1  UNL1        0.0898
     10 N         141.6104  143.9098  162.0313 N.3     1  UNL1       -0.2672
     11 C         141.9625  143.9988  163.4867 C.3     1  UNL1        0.0898
     12 C         142.2319  142.7489  164.2709 C.3     1  UNL1        0.0896
     13 C         141.3410  145.1597  161.2470 C.3     1  UNL1        0.1201
     14 C         139.9285  145.5954  160.9921 C.3     1  UNL1        0.2226
     15 O         138.9119  145.5258  162.0930 O.3     1  UNL1       -0.4740
     16 C         138.4270  144.1936  162.5828 C.ar    1  UNL1        0.1386
     17 C         138.1557  143.0885  161.6055 C.ar    1  UNL1        0.0369
     18 C         137.6708  141.7563  162.0954 C.ar    1  UNL1        0.0031
     19 C         137.4572  141.5291  163.5626 C.ar    1  UNL1        0.0002
     20 C         137.7285  142.6342  164.5400 C.ar    1  UNL1        0.0031
     21 C         138.2134  143.9664  164.0500 C.ar    1  UNL1        0.0369
     22 C         140.9187  140.1418  164.3721 C.3     1  UNL1        0.1143
     23 C         138.9714  139.0751  165.7212 C.2     1  UNL1        0.2304
     24 O         138.5413  138.3165  164.5007 O.2     1  UNL1       -0.2745
     25 N         140.1601  139.9877  165.6569 N.am    1  UNL1       -0.2425
     26 C         140.5901  140.7463  166.8774 C.ar    1  UNL1        0.1373
     27 C         140.1748  142.1765  167.0566 C.ar    1  UNL1        0.0347
     28 C         140.6048  142.9350  168.2771 C.ar    1  UNL1        0.0044
     29 C         141.4502  142.2634  169.3184 C.ar    1  UNL1        0.0232
     30 C         141.8655  140.8333  169.1392 C.ar    1  UNL1        0.1540
     31 N         141.4355  140.0747  167.9187 N.ar    1  UNL1       -0.2263
     32 C         142.7109  140.1616  170.1805 C.3     1  UNL1        0.4349
     33 F         143.5562  139.4900  171.2218 F       1  UNL1       -0.1644
     34 F         143.5931  141.3729  170.2454 F       1  UNL1       -0.1644
     35 F         141.8285  138.9503  170.1156 F       1  UNL1       -0.1644
     36 C         137.2746  137.7649  167.1891 C.3     1  UNL1        0.0101
     37 C         138.2127  138.9209  167.0060 C.3     1  UNL1        0.0857
@<TRIPOS>BOND
     1    36    37    1
     2    37    23    1
     3    23    24    2
     4    23    25   am
     5    25    22    1
     6    22     1    1
     7     1     7    1
     8     7     8    1
     9     8     9    1
    10     9    10    1
    11    10    13    1
    12    13    14    1
    13    14    15    1
    14    15    16    1
    15    16    17   ar
    16    17    18   ar
    17    18    19   ar
    18    19    20   ar
    19    20    21   ar
    20    10    11    1
    21    11    12    1
    22     1     2    1
    23     2     3    1
    24     3     4    1
    25     4     5    1
    26     5     6    1
    27    25    26    1
    28    26    27   ar
    29    27    28   ar
    30    28    29   ar
    31    29    30   ar
    32    30    32    1
    33    32    33    1
    34    32    34    1
    35    32    35    1
    36    30    31   ar
    37     6     1    1
    38    31    26   ar
    39    12     7    1
    40    21    16   ar
@<TRIPOS>MOLECULE
*****
 37 40 0 0 0
SMALL
GASTEIGER

@<TRIPOS>ATOM
      1 C         139.0569  139.8838  164.6492 C.3     1  UNL1        0.0690
      2 C         138.8670  139.6366  163.1820 C.3     1  UNL1        0.0485
      3 C         138.7150  138.2345  162.6711 C.3     1  UNL1        0.1436
      4 O         138.7528  137.0795  163.6276 O.3     1  UNL1       -0.3537
      5 C         138.9427  137.3267  165.0948 C.3     1  UNL1        0.1436
      6 C         139.0947  138.7288  165.6057 C.3     1  UNL1        0.0485
      7 N         139.0888  141.2948  164.1411 N.3     1  UNL1       -0.2710
      8 C         139.9872  141.6596  162.9966 C.3     1  UNL1        0.0896
      9 C         140.0191  143.0705  162.4886 C.3     1  UNL1        0.0898
     10 N         139.1527  144.1166  163.1250 N.3     1  UNL1       -0.2672
     11 C         138.2543  143.7518  164.2694 C.3     1  UNL1        0.0898
     12 C         138.2224  142.3409  164.7775 C.3     1  UNL1        0.0896
     13 C         139.1846  145.5277  162.6168 C.3     1  UNL1        0.1201
     14 C         140.1538  145.9151  161.5396 C.3     1  UNL1        0.2226
     15 O         139.7010  145.9791  160.1109 O.3     1  UNL1       -0.4740
     16 C         140.5883  145.4593  159.0189 C.ar    1  UNL1        0.1386
     17 C         140.4180  145.9560  157.6138 C.ar    1  UNL1        0.0369
     18 C         141.3053  145.4362  156.5219 C.ar    1  UNL1        0.0031
     19 C         142.3630  144.4197  156.8350 C.ar    1  UNL1        0.0002
     20 C         142.5334  143.9230  158.2401 C.ar    1  UNL1        0.0031
     21 C         141.6460  144.4429  159.3321 C.ar    1  UNL1        0.0369
     22 C         139.2579  140.6210  165.9400 C.3     1  UNL1        0.1143
     23 C         140.6626  140.1628  168.0770 C.2     1  UNL1        0.2304
     24 O         139.4107  139.8100  168.8243 O.2     1  UNL1       -0.2745
     25 N         140.5861  140.5683  166.6349 N.am    1  UNL1       -0.2425
     26 C         141.8380  140.9210  165.8876 C.ar    1  UNL1        0.1373
     27 C         142.6915  139.8365  165.3000 C.ar    1  UNL1        0.0347
     28 C         143.9434  140.1892  164.5528 C.ar    1  UNL1        0.0044
     29 C         144.3417  141.6265  164.3932 C.ar    1  UNL1        0.0232
     30 C         143.4882  142.7110  164.9807 C.ar    1  UNL1        0.1540
     31 N         142.2363  142.3584  165.7280 N.ar    1  UNL1       -0.2263
     32 C         143.8866  144.1484  164.8211 C.3     1  UNL1        0.4349
     33 F         144.2849  145.5857  164.6614 F       1  UNL1       -0.1644
     34 F         145.0135  143.9436  165.7896 F       1  UNL1       -0.1644
     35 F         142.7596  144.3532  163.8526 F       1  UNL1       -0.1644
     36 C         142.2148  139.1341  169.8887 C.3     1  UNL1        0.0101
     37 C         141.9908  140.1101  168.7719 C.3     1  UNL1        0.0857
@<TRIPOS>BOND
     1    36    37    1
     2    37    23    1
     3    23    24    2
     4    23    25   am
     5    25    22    1
     6    22     1    1
     7     1     7    1
     8     7     8    1
     9     8     9    1
    10     9    10    1
    11    10    13    1
    12    13    14    1
    13    14    15    1
    14    15    16    1
    15    16    17   ar
    16    17    18   ar
    17    18    19   ar
    18    19    20   ar
    19    20    21   ar
    20    10    11    1
    21    11    12    1
    22     1     2    1
    23     2     3    1
    24     3     4    1
    25     4     5    1
    26     5     6    1
    27    25    26    1
    28    26    27   ar
    29    27    28   ar
    30    28    29   ar
    31    29    30   ar
    32    30    32    1
    33    32    33    1
    34    32    34    1
    35    32    35    1
    36    30    31   ar
    37     6     1    1
    38    31    26   ar
    39    12     7    1
    40    21    16   ar
@<TRIPOS>MOLECULE
*****
 37 40 0 0 0
SMALL
GASTEIGER

@<TRIPOS>ATOM
      1 C         139.8861  139.2378  165.9318 C.3     1  UNL1        0.0690
      2 C         140.4285  139.8056  167.2098 C.3     1  UNL1        0.0485
      3 C         139.5807  139.8118  168.4472 C.3     1  UNL1        0.1436
      4 O         138.1904  139.2502  168.4066 O.3     1  UNL1       -0.3537
      5 C         137.6479  138.6824  167.1286 C.3     1  UNL1        0.1436
      6 C         138.4957  138.6762  165.8912 C.3     1  UNL1        0.0485
      7 N         141.2529  139.6522  165.4732 N.3     1  UNL1       -0.2710
      8 C         141.8076  140.9856  165.8784 C.3     1  UNL1        0.0896
      9 C         143.1744  141.4000  165.4199 C.3     1  UNL1        0.0898
     10 N         143.9863  140.4809  164.5561 N.3     1  UNL1       -0.2672
     11 C         143.4315  139.1475  164.1509 C.3     1  UNL1        0.0898
     12 C         142.0648  138.7332  164.6095 C.3     1  UNL1        0.0896
     13 C         145.3531  140.8953  164.0975 C.3     1  UNL1        0.1201
     14 C         145.5090  142.0484  163.1510 C.3     1  UNL1        0.2226
     15 O         145.6066  141.7992  161.6750 O.3     1  UNL1       -0.4740
     16 C         144.3592  141.6781  160.8508 C.ar    1  UNL1        0.1386
     17 C         143.7531  142.8985  160.2237 C.ar    1  UNL1        0.0369
     18 C         142.5057  142.7774  159.3995 C.ar    1  UNL1        0.0031
     19 C         141.8643  141.4358  159.2024 C.ar    1  UNL1        0.0002
     20 C         142.4704  140.2154  159.8294 C.ar    1  UNL1        0.0031
     21 C         143.7179  140.3365  160.6537 C.ar    1  UNL1        0.0369
     22 C         139.8182  138.8140  164.4945 C.3     1  UNL1        0.1143
     23 C         138.2938  139.1763  162.4222 C.2     1  UNL1        0.2304
     24 O         137.9786  137.7100  162.3976 O.2     1  UNL1       -0.2745
     25 N         139.2136  139.7283  163.4707 N.am    1  UNL1       -0.2425
     26 C         139.5287  141.1946  163.4952 C.ar    1  UNL1        0.1373
     27 C         140.6418  141.7368  162.6484 C.ar    1  UNL1        0.0347
     28 C         140.9569  143.2031  162.6729 C.ar    1  UNL1        0.0044
     29 C         140.1590  144.1272  163.5443 C.ar    1  UNL1        0.0232
     30 C         139.0460  143.5850  164.3911 C.ar    1  UNL1        0.1540
     31 N         138.7308  142.1187  164.3666 N.ar    1  UNL1       -0.2263
     32 C         138.2480  144.5092  165.2626 C.3     1  UNL1        0.4349
     33 F         137.4501  145.4333  166.1340 F       1  UNL1       -0.1644
     34 F         137.1644  144.5506  164.2263 F       1  UNL1       -0.1644
     35 F         139.3317  144.4677  166.2989 F       1  UNL1       -0.1644
     36 C         138.3010  140.1968  160.0329 C.3     1  UNL1        0.0101
     37 C         137.6891  140.0906  161.3983 C.3     1  UNL1        0.0857
@<TRIPOS>BOND
     1    36    37    1
     2    37    23    1
     3    23    24    2
     4    23    25   am
     5    25    22    1
     6    22     1    1
     7     1     7    1
     8     7     8    1
     9     8     9    1
    10     9    10    1
    11    10    13    1
    12    13    14    1
    13    14    15    1
    14    15    16    1
    15    16    17   ar
    16    17    18   ar
    17    18    19   ar
    18    19    20   ar
    19    20    21   ar
    20    10    11    1
    21    11    12    1
    22     1     2    1
    23     2     3    1
    24     3     4    1
    25     4     5    1
    26     5     6    1
    27    25    26    1
    28    26    27   ar
    29    27    28   ar
    30    28    29   ar
    31    29    30   ar
    32    30    32    1
    33    32    33    1
    34    32    34    1
    35    32    35    1
    36    30    31   ar
    37     6     1    1
    38    31    26   ar
    39    12     7    1
    40    21    16   ar
@<TRIPOS>MOLECULE
*****
 37 40 0 0 0
SMALL
GASTEIGER

@<TRIPOS>ATOM
      1 C         140.6961  141.5720  167.4613 C.3     1  UNL1        0.0690
      2 C         141.8078  142.4385  167.9742 C.3     1  UNL1        0.0485
      3 C         142.4469  142.1342  169.2966 C.3     1  UNL1        0.1436
      4 O         141.9742  140.9631  170.1062 O.3     1  UNL1       -0.3537
      5 C         140.8625  140.0966  169.5933 C.3     1  UNL1        0.1436
      6 C         140.2234  140.4009  168.2709 C.3     1  UNL1        0.0485
      7 N         140.7944  142.5613  166.3381 N.3     1  UNL1       -0.2710
      8 C         139.6014  143.3884  165.9604 C.3     1  UNL1        0.0896
      9 C         139.6999  144.3777  164.8373 C.3     1  UNL1        0.0898
     10 N         140.9913  144.5399  164.0917 N.3     1  UNL1       -0.2672
     11 C         142.1843  143.7129  164.4694 C.3     1  UNL1        0.0898
     12 C         142.0859  142.7236  165.5925 C.3     1  UNL1        0.0896
     13 C         141.0897  145.5293  162.9685 C.3     1  UNL1        0.1201
     14 C         140.1495  145.4372  161.8034 C.3     1  UNL1        0.2226
     15 O         138.9326  144.5642  161.8888 O.3     1  UNL1       -0.4740
     16 C         139.0030  143.1338  161.4429 C.ar    1  UNL1        0.1386
     17 C         140.1259  142.6782  160.5588 C.ar    1  UNL1        0.0369
     18 C         140.1962  141.2478  160.1129 C.ar    1  UNL1        0.0031
     19 C         139.1437  140.2729  160.5510 C.ar    1  UNL1        0.0002
     20 C         138.0208  140.7285  161.4350 C.ar    1  UNL1        0.0031
     21 C         137.9505  142.1590  161.8810 C.ar    1  UNL1        0.0369
     22 C         139.6185  141.0489  166.5583 C.3     1  UNL1        0.1143
     23 C         138.8104  138.7545  165.6459 C.2     1  UNL1        0.2304
     24 O         137.5147  138.9173  166.3840 O.2     1  UNL1       -0.2745
     25 N         139.8623  139.8204  165.7331 N.am    1  UNL1       -0.2425
     26 C         141.1579  139.6576  164.9949 C.ar    1  UNL1        0.1373
     27 C         141.2571  140.0659  163.5550 C.ar    1  UNL1        0.0347
     28 C         142.5528  139.9031  162.8169 C.ar    1  UNL1        0.0044
     29 C         143.7492  139.3320  163.5187 C.ar    1  UNL1        0.0232
     30 C         143.6499  138.9238  164.9587 C.ar    1  UNL1        0.1540
     31 N         142.3543  139.0865  165.6968 N.ar    1  UNL1       -0.2263
     32 C         144.8463  138.3527  165.6606 C.3     1  UNL1        0.4349
     33 F         146.0427  137.7816  166.3624 F       1  UNL1       -0.1644
     34 F         143.9417  137.5711  166.5665 F       1  UNL1       -0.1644
     35 F         145.7509  139.1343  164.7545 F       1  UNL1       -0.1644
     36 C         138.7170  137.5250  163.3590 C.3     1  UNL1        0.0101
     37 C         139.0541  137.5259  164.8206 C.3     1  UNL1        0.0857
@<TRIPOS>BOND
     1    36    37    1
     2    37    23    1
     3    23    24    2
     4    23    25   am
     5    25    22    1
     6    22     1    1
     7     1     7    1
     8     7     8    1
     9     8     9    1
    10     9    10    1
    11    10    13    1
    12    13    14    1
    13    14    15    1
    14    15    16    1
    15    16    17   ar
    16    17    18   ar
    17    18    19   ar
    18    19    20   ar
    19    20    21   ar
    20    10    11    1
    21    11    12    1
    22     1     2    1
    23     2     3    1
    24     3     4    1
    25     4     5    1
    26     5     6    1
    27    25    26    1
    28    26    27   ar
    29    27    28   ar
    30    28    29   ar
    31    29    30   ar
    32    30    32    1
    33    32    33    1
    34    32    34    1
    35    32    35    1
    36    30    31   ar
    37     6     1    1
    38    31    26   ar
    39    12     7    1
    40    21    16   ar
@<TRIPOS>MOLECULE
*****
 37 40 0 0 0
SMALL
GASTEIGER

@<TRIPOS>ATOM
      1 C         141.2156  141.4029  167.7156 C.3     1  UNL1        0.0690
      2 C         142.3864  142.2628  168.0895 C.3     1  UNL1        0.0485
      3 C         143.1517  141.9817  169.3486 C.3     1  UNL1        0.1436
      4 O         142.7461  140.8406  170.2338 O.3     1  UNL1       -0.3537
      5 C         141.5753  139.9808  169.8600 C.3     1  UNL1        0.1436
      6 C         140.8100  140.2619  168.6009 C.3     1  UNL1        0.0485
      7 N         141.2144  142.3609  166.5613 N.3     1  UNL1       -0.2710
      8 C         139.9368  143.0227  166.1372 C.3     1  UNL1        0.0896
      9 C         139.9357  143.9806  164.9829 C.3     1  UNL1        0.0898
     10 N         141.2120  144.2766  164.2527 N.3     1  UNL1       -0.2672
     11 C         142.4896  143.6148  164.6767 C.3     1  UNL1        0.0898
     12 C         142.4907  142.6569  165.8310 C.3     1  UNL1        0.0896
     13 C         141.2108  145.2345  163.0983 C.3     1  UNL1        0.1201
     14 C         139.9169  145.6194  162.4444 C.3     1  UNL1        0.2226
     15 O         139.4976  144.9585  161.1647 O.3     1  UNL1       -0.4740
     16 C         139.2248  143.4838  161.1365 C.ar    1  UNL1        0.1386
     17 C         140.0437  142.5863  160.2568 C.ar    1  UNL1        0.0369
     18 C         139.7708  141.1116  160.2286 C.ar    1  UNL1        0.0031
     19 C         138.6791  140.5344  161.0801 C.ar    1  UNL1        0.0002
     20 C         137.8603  141.4319  161.9599 C.ar    1  UNL1        0.0031
     21 C         138.1332  142.9067  161.9880 C.ar    1  UNL1        0.0369
     22 C         140.0443  140.8758  166.9409 C.3     1  UNL1        0.1143
     23 C         139.1030  138.7246  165.8290 C.2     1  UNL1        0.2304
     24 O         137.8089  138.9108  166.5643 O.2     1  UNL1       -0.2745
     25 N         140.2207  139.7071  166.0173 N.am    1  UNL1       -0.2425
     26 C         141.5148  139.5208  165.2820 C.ar    1  UNL1        0.1373
     27 C         142.6782  138.8657  165.9656 C.ar    1  UNL1        0.0347
     28 C         143.9723  138.6794  165.2303 C.ar    1  UNL1        0.0044
     29 C         144.1029  139.1483  163.8115 C.ar    1  UNL1        0.0232
     30 C         142.9396  139.8034  163.1280 C.ar    1  UNL1        0.1540
     31 N         141.6455  139.9897  163.8632 N.ar    1  UNL1       -0.2263
     32 C         143.0702  140.2724  161.7091 C.3     1  UNL1        0.4349
     33 F         143.2009  140.7413  160.2903 F       1  UNL1       -0.1644
     34 F         142.5318  141.6157  162.1036 F       1  UNL1       -0.1644
     35 F         143.6086  138.9290  161.3148 F       1  UNL1       -0.1644
     36 C         138.8478  137.6602  163.4727 C.3     1  UNL1        0.0101
     37 C         139.2793  137.5558  164.9055 C.3     1  UNL1        0.0857
@<TRIPOS>BOND
     1    36    37    1
     2    37    23    1
     3    23    24    2
     4    23    25   am
     5    25    22    1
     6    22     1    1
     7     1     7    1
     8     7     8    1
     9     8     9    1
    10     9    10    1
    11    10    13    1
    12    13    14    1
    13    14    15    1
    14    15    16    1
    15    16    17   ar
    16    17    18   ar
    17    18    19   ar
    18    19    20   ar
    19    20    21   ar
    20    10    11    1
    21    11    12    1
    22     1     2    1
    23     2     3    1
    24     3     4    1
    25     4     5    1
    26     5     6    1
    27    25    26    1
    28    26    27   ar
    29    27    28   ar
    30    28    29   ar
    31    29    30   ar
    32    30    32    1
    33    32    33    1
    34    32    34    1
    35    32    35    1
    36    30    31   ar
    37     6     1    1
    38    31    26   ar
    39    12     7    1
    40    21    16   ar
@<TRIPOS>MOLECULE
*****
 37 40 0 0 0
SMALL
GASTEIGER

@<TRIPOS>ATOM
      1 C         139.8839  139.4585  165.9661 C.3     1  UNL1        0.0690
      2 C         140.3401  140.0490  167.2672 C.3     1  UNL1        0.0485
      3 C         139.4703  139.9434  168.4847 C.3     1  UNL1        0.1436
      4 O         138.1442  139.2473  168.4010 O.3     1  UNL1       -0.3537
      5 C         137.6880  138.6567  167.0999 C.3     1  UNL1        0.1436
      6 C         138.5578  138.7623  165.8824 C.3     1  UNL1        0.0485
      7 N         141.2116  140.0169  165.5473 N.3     1  UNL1       -0.2710
      8 C         141.5291  141.4619  165.7944 C.3     1  UNL1        0.0896
      9 C         142.8569  142.0202  165.3756 C.3     1  UNL1        0.0898
     10 N         143.8671  141.1335  164.7099 N.3     1  UNL1       -0.2672
     11 C         143.5496  139.6885  164.4628 C.3     1  UNL1        0.0898
     12 C         142.2219  139.1302  164.8815 C.3     1  UNL1        0.0896
     13 C         145.1949  141.6920  164.2911 C.3     1  UNL1        0.1201
     14 C         145.3835  142.2128  162.8972 C.3     1  UNL1        0.2226
     15 O         145.1617  141.3075  161.7218 O.3     1  UNL1       -0.4740
     16 C         143.9715  141.5115  160.8321 C.ar    1  UNL1        0.1386
     17 C         142.8353  140.5326  160.8632 C.ar    1  UNL1        0.0369
     18 C         141.6450  140.7366  159.9735 C.ar    1  UNL1        0.0031
     19 C         141.5909  141.9195  159.0527 C.ar    1  UNL1        0.0002
     20 C         142.7271  142.8983  159.0215 C.ar    1  UNL1        0.0031
     21 C         143.9174  142.6943  159.9113 C.ar    1  UNL1        0.0369
     22 C         139.8888  139.0618  164.5194 C.3     1  UNL1        0.1143
     23 C         138.2620  139.0652  162.4937 C.2     1  UNL1        0.2304
     24 O         138.3249  137.5674  162.4408 O.2     1  UNL1       -0.2745
     25 N         139.0440  139.8123  163.5331 N.am    1  UNL1       -0.2425
     26 C         138.9811  141.3101  163.5861 C.ar    1  UNL1        0.1373
     27 C         137.9974  141.9878  164.4933 C.ar    1  UNL1        0.0347
     28 C         137.9345  143.4856  164.5463 C.ar    1  UNL1        0.0044
     29 C         138.8553  144.3055  163.6920 C.ar    1  UNL1        0.0232
     30 C         139.8389  143.6278  162.7848 C.ar    1  UNL1        0.1540
     31 N         139.9018  142.1301  162.7318 N.ar    1  UNL1       -0.2263
     32 C         140.7597  144.4479  161.9305 C.3     1  UNL1        0.4349
     33 F         141.6805  145.2678  161.0762 F       1  UNL1       -0.1644
     34 F         141.6064  144.7484  163.1317 F       1  UNL1       -0.1644
     35 F         139.9130  144.1473  160.7294 F       1  UNL1       -0.1644
     36 C         137.9581  140.1329  160.1447 C.3     1  UNL1        0.0101
     37 C         137.4171  139.8156  161.5074 C.3     1  UNL1        0.0857
@<TRIPOS>BOND
     1    36    37    1
     2    37    23    1
     3    23    24    2
     4    23    25   am
     5    25    22    1
     6    22     1    1
     7     1     7    1
     8     7     8    1
     9     8     9    1
    10     9    10    1
    11    10    13    1
    12    13    14    1
    13    14    15    1
    14    15    16    1
    15    16    17   ar
    16    17    18   ar
    17    18    19   ar
    18    19    20   ar
    19    20    21   ar
    20    10    11    1
    21    11    12    1
    22     1     2    1
    23     2     3    1
    24     3     4    1
    25     4     5    1
    26     5     6    1
    27    25    26    1
    28    26    27   ar
    29    27    28   ar
    30    28    29   ar
    31    29    30   ar
    32    30    32    1
    33    32    33    1
    34    32    34    1
    35    32    35    1
    36    30    31   ar
    37     6     1    1
    38    31    26   ar
    39    12     7    1
    40    21    16   ar
