@<TRIPOS>MOLECULE
*****
 42 45 0 0 0
SMALL
GASTEIGER

@<TRIPOS>ATOM
      1 C         147.1503  142.2399  156.1110 C.3     1  UNL1        0.0949
      2 C         145.9574  141.3401  156.2429 C.2     1  UNL1        0.2269
      3 O         145.7342  140.2399  155.2482 O.2     1  UNL1       -0.2748
      4 N         144.9877  141.5406  157.3696 N.am    1  UNL1       -0.2655
      5 C         145.0791  142.5927  158.4349 C.3     1  UNL1        0.1206
      6 C         143.9042  142.4265  159.3526 C.ar    1  UNL1       -0.0030
      7 C         143.4733  143.1776  160.5774 C.ar    1  UNL1        0.0155
      8 C         142.2247  142.7738  161.3040 C.ar    1  UNL1        0.1054
      9 C         141.4071  141.6191  160.8059 C.ar    1  UNL1        0.0181
     10 C         141.8381  140.8681  159.5811 C.ar    1  UNL1       -0.0011
     11 C         143.0867  141.2718  158.8544 C.ar    1  UNL1        0.0022
     12 C         143.7563  140.7243  157.6289 C.3     1  UNL1        0.1750
     13 C         143.2783  139.5641  156.8070 C.2     1  UNL1        0.2485
     14 O         142.6585  139.8025  155.4621 O.2     1  UNL1       -0.2726
     15 N         143.4203  138.1654  157.3300 N.am    1  UNL1       -0.2823
     16 H         143.8271  138.0088  158.2128 H       1  UNL1        0.1549
     17 C         142.9423  137.0052  156.5081 C.ar    1  UNL1        0.0503
     18 C         143.9339  136.1136  155.8213 C.ar    1  UNL1        0.0144
     19 C         143.4560  134.9534  154.9994 C.ar    1  UNL1       -0.0002
     20 C         141.9865  134.6849  154.8643 C.ar    1  UNL1        0.0182
     21 C         140.9949  135.5765  155.5511 C.ar    1  UNL1       -0.0002
     22 C         141.4728  136.7367  156.3731 C.ar    1  UNL1        0.0144
     23 C         141.5084  133.5247  154.0424 C.3     1  UNL1        0.2827
     24 O         141.1164  134.4658  152.9421 O.3     1  UNL1       -0.3692
     25 H         140.7405  133.9614  152.2038 H       1  UNL1        0.2112
     26 C         141.0304  132.3646  153.2204 C.3     1  UNL1        0.4311
     27 F         140.5523  131.2045  152.3984 F       1  UNL1       -0.1669
     28 F         142.1205  132.6222  152.2228 F       1  UNL1       -0.1669
     29 F         140.3570  132.1301  153.7460 F       1  UNL1       -0.1669
     30 C         141.9004  132.5836  155.1427 C.3     1  UNL1        0.4311
     31 F         142.2924  131.6425  156.2429 F       1  UNL1       -0.1669
     32 F         143.1292  131.9025  154.6171 F       1  UNL1       -0.1669
     33 F         141.2437  132.7897  155.7001 F       1  UNL1       -0.1669
     34 S         141.7937  143.5249  162.5289 S.O2    1  UNL1        0.0097
     35 O         140.9539  142.3556  162.9504 O.2     1  UNL1       -0.1686
     36 O         142.6334  144.6941  162.1075 O.2     1  UNL1       -0.1686
     37 C         141.3627  144.2759  163.7537 C.3     1  UNL1        0.1698
     38 C         139.9126  144.5960  163.9657 C.3     1  UNL1        0.1017
     39 C         138.5597  144.6448  164.6115 C.3     1  UNL1        0.0169
     40 C         139.6886  143.9257  165.2887 C.3     1  UNL1        0.0169
     41 C         139.6332  145.3775  162.7162 C.1     1  UNL1        0.0728
     42 N         139.3539  146.1591  161.4667 N.1     1  UNL1       -0.1959
@<TRIPOS>BOND
     1     1     2    1
     2     2     3    2
     3     2     4   am
     4     4     5    1
     5     5     6    1
     6     6     7   ar
     7     7     8   ar
     8     8    34    1
     9    34    35    2
    10    34    36    2
    11    34    37    1
    12    37    38    1
    13    38    41    1
    14    41    42    3
    15    38    39    1
    16    39    40    1
    17     8     9   ar
    18     9    10   ar
    19    10    11   ar
    20    11    12    1
    21    12    13    1
    22    13    14    2
    23    13    15   am
    24    15    17    1
    25    17    18   ar
    26    18    19   ar
    27    19    20   ar
    28    20    23    1
    29    23    24    1
    30    23    26    1
    31    26    27    1
    32    26    28    1
    33    26    29    1
    34    23    30    1
    35    30    31    1
    36    30    32    1
    37    30    33    1
    38    20    21   ar
    39    21    22   ar
    40    12     4    1
    41    22    17   ar
    42    11     6   ar
    43    40    38    1
    44    15    16    1
    45    24    25    1
@<TRIPOS>MOLECULE
*****
 42 45 0 0 0
SMALL
GASTEIGER

@<TRIPOS>ATOM
      1 C         141.4902  144.6204  159.3442 C.3     1  UNL1        0.0949
      2 C         141.8065  143.4997  160.2895 C.2     1  UNL1        0.2269
      3 O         141.9173  143.7684  161.7610 O.2     1  UNL1       -0.2748
      4 N         142.0121  142.1101  159.7633 N.am    1  UNL1       -0.2655
      5 C         141.9334  141.6913  158.3251 C.3     1  UNL1        0.1206
      6 C         142.2051  140.2177  158.2559 C.ar    1  UNL1       -0.0030
      7 C         142.2599  139.2603  157.1025 C.ar    1  UNL1        0.0155
      8 C         142.5612  137.8110  157.3445 C.ar    1  UNL1        0.1054
      9 C         142.8078  137.3191  158.7399 C.ar    1  UNL1        0.0181
     10 C         142.7531  138.2765  159.8933 C.ar    1  UNL1       -0.0011
     11 C         142.4517  139.7258  159.6513 C.ar    1  UNL1        0.0022
     12 C         142.3324  140.8953  160.5829 C.3     1  UNL1        0.1750
     13 C         142.5035  140.8569  162.0726 C.2     1  UNL1        0.2485
     14 O         143.8499  140.5653  162.6658 O.2     1  UNL1       -0.2726
     15 N         141.3278  141.1100  162.9694 N.am    1  UNL1       -0.2823
     16 H         140.4440  141.3013  162.5801 H       1  UNL1        0.1549
     17 C         141.4988  141.0715  164.4591 C.ar    1  UNL1        0.0503
     18 C         142.1447  142.2237  165.1699 C.ar    1  UNL1        0.0144
     19 C         142.3157  142.1852  166.6596 C.ar    1  UNL1       -0.0002
     20 C         141.8409  140.9945  167.4384 C.ar    1  UNL1        0.0182
     21 C         141.1950  139.8423  166.7276 C.ar    1  UNL1       -0.0002
     22 C         141.0240  139.8808  165.2379 C.ar    1  UNL1        0.0144
     23 C         142.0118  140.9559  168.9282 C.3     1  UNL1        0.2827
     24 O         142.9172  139.7676  168.7934 O.3     1  UNL1       -0.3692
     25 H         143.2166  139.4879  169.6726 H       1  UNL1        0.2112
     26 C         142.1829  140.9173  170.4179 C.3     1  UNL1        0.4311
     27 F         142.3539  140.8786  171.9077 F       1  UNL1       -0.1669
     28 F         143.6488  141.1911  170.2567 F       1  UNL1       -0.1669
     29 F         141.3360  140.7540  170.6196 F       1  UNL1       -0.1669
     30 C         141.1065  142.1443  169.0630 C.3     1  UNL1        0.4311
     31 F         140.2012  143.3326  169.1977 F       1  UNL1       -0.1669
     32 F         142.0184  143.2458  169.5160 F       1  UNL1       -0.1669
     33 F         140.3582  141.7382  168.8187 F       1  UNL1       -0.1669
     34 S         142.6159  136.8535  156.1911 S.O2    1  UNL1        0.0097
     35 O         144.0868  137.1103  156.0477 O.2     1  UNL1       -0.1686
     36 O         141.1450  136.5968  156.3345 O.2     1  UNL1       -0.1686
     37 C         142.6706  135.8961  155.0377 C.3     1  UNL1        0.1698
     38 C         142.2638  134.4652  155.2308 C.3     1  UNL1        0.1017
     39 C         141.6057  133.1408  154.9802 C.3     1  UNL1        0.0169
     40 C         141.3989  134.2747  154.0202 C.3     1  UNL1        0.0169
     41 C         142.9875  134.1589  156.5085 C.1     1  UNL1        0.0728
     42 N         143.7111  133.8526  157.7862 N.1     1  UNL1       -0.1959
@<TRIPOS>BOND
     1     1     2    1
     2     2     3    2
     3     2     4   am
     4     4     5    1
     5     5     6    1
     6     6     7   ar
     7     7     8   ar
     8     8    34    1
     9    34    35    2
    10    34    36    2
    11    34    37    1
    12    37    38    1
    13    38    41    1
    14    41    42    3
    15    38    39    1
    16    39    40    1
    17     8     9   ar
    18     9    10   ar
    19    10    11   ar
    20    11    12    1
    21    12    13    1
    22    13    14    2
    23    13    15   am
    24    15    17    1
    25    17    18   ar
    26    18    19   ar
    27    19    20   ar
    28    20    23    1
    29    23    24    1
    30    23    26    1
    31    26    27    1
    32    26    28    1
    33    26    29    1
    34    23    30    1
    35    30    31    1
    36    30    32    1
    37    30    33    1
    38    20    21   ar
    39    21    22   ar
    40    12     4    1
    41    22    17   ar
    42    11     6   ar
    43    40    38    1
    44    15    16    1
    45    24    25    1
@<TRIPOS>MOLECULE
*****
 42 45 0 0 0
SMALL
GASTEIGER

@<TRIPOS>ATOM
      1 C         141.4702  144.8511  159.1119 C.3     1  UNL1        0.0949
      2 C         141.6295  143.7395  160.1063 C.2     1  UNL1        0.2269
      3 O         141.5687  144.0336  161.5759 O.2     1  UNL1       -0.2748
      4 N         141.8498  142.3339  159.6311 N.am    1  UNL1       -0.2655
      5 C         141.9331  141.8896  158.2009 C.3     1  UNL1        0.1206
      6 C         142.1602  140.4069  158.1886 C.ar    1  UNL1       -0.0030
      7 C         142.3224  139.4256  157.0658 C.ar    1  UNL1        0.0155
      8 C         142.5416  137.9724  157.3656 C.ar    1  UNL1        0.1054
      9 C         142.5985  137.5004  158.7883 C.ar    1  UNL1        0.0181
     10 C         142.4362  138.4816  159.9111 C.ar    1  UNL1       -0.0011
     11 C         142.2171  139.9349  159.6113 C.ar    1  UNL1        0.0022
     12 C         142.0252  141.1258  160.5028 C.3     1  UNL1        0.1750
     13 C         142.0113  141.1113  162.0027 C.2     1  UNL1        0.2485
     14 O         143.2970  140.9771  162.7634 O.2     1  UNL1       -0.2726
     15 N         140.7115  141.2308  162.7419 N.am    1  UNL1       -0.2823
     16 H         139.8676  141.3189  162.2426 H       1  UNL1        0.1549
     17 C         140.6976  141.2163  164.2417 C.ar    1  UNL1        0.0503
     18 C         140.5663  142.5020  165.0031 C.ar    1  UNL1        0.0144
     19 C         140.5524  142.4874  166.5030 C.ar    1  UNL1       -0.0002
     20 C         140.6698  141.1871  167.2414 C.ar    1  UNL1        0.0182
     21 C         140.8010  139.9014  166.4800 C.ar    1  UNL1       -0.0002
     22 C         140.8150  139.9159  164.9802 C.ar    1  UNL1        0.0144
     23 C         140.6559  141.1724  168.7413 C.3     1  UNL1        0.2827
     24 O         139.3840  140.3775  168.7216 O.3     1  UNL1       -0.3692
     25 H         139.1013  140.1972  169.6318 H       1  UNL1        0.2112
     26 C         140.6419  141.1577  170.2411 C.3     1  UNL1        0.4311
     27 F         140.6279  141.1430  171.7410 F       1  UNL1       -0.1669
     28 F         139.3580  141.9334  170.2368 F       1  UNL1       -0.1669
     29 F         141.3934  140.7020  170.3516 F       1  UNL1       -0.1669
     30 C         141.9278  141.9673  168.7609 C.3     1  UNL1        0.4311
     31 F         143.1996  142.7622  168.7806 F       1  UNL1       -0.1669
     32 F         141.5182  143.2934  169.3301 F       1  UNL1       -0.1669
     33 F         142.4525  141.3397  168.4215 F       1  UNL1       -0.1669
     34 S         142.7038  136.9910  156.2428 S.O2    1  UNL1        0.0097
     35 O         141.2421  136.6631  156.3181 O.2     1  UNL1       -0.1686
     36 O         144.1655  137.3190  156.1674 O.2     1  UNL1       -0.1686
     37 C         142.8661  136.0097  155.1200 C.3     1  UNL1        0.1698
     38 C         142.4165  134.5893  155.2944 C.3     1  UNL1        0.1017
     39 C         141.7268  133.2856  155.0216 C.3     1  UNL1        0.0169
     40 C         141.5687  134.4319  154.0671 C.3     1  UNL1        0.0169
     41 C         143.1083  134.2536  156.5823 C.1     1  UNL1        0.0728
     42 N         143.8001  133.9179  157.8703 N.1     1  UNL1       -0.1959
@<TRIPOS>BOND
     1     1     2    1
     2     2     3    2
     3     2     4   am
     4     4     5    1
     5     5     6    1
     6     6     7   ar
     7     7     8   ar
     8     8    34    1
     9    34    35    2
    10    34    36    2
    11    34    37    1
    12    37    38    1
    13    38    41    1
    14    41    42    3
    15    38    39    1
    16    39    40    1
    17     8     9   ar
    18     9    10   ar
    19    10    11   ar
    20    11    12    1
    21    12    13    1
    22    13    14    2
    23    13    15   am
    24    15    17    1
    25    17    18   ar
    26    18    19   ar
    27    19    20   ar
    28    20    23    1
    29    23    24    1
    30    23    26    1
    31    26    27    1
    32    26    28    1
    33    26    29    1
    34    23    30    1
    35    30    31    1
    36    30    32    1
    37    30    33    1
    38    20    21   ar
    39    21    22   ar
    40    12     4    1
    41    22    17   ar
    42    11     6   ar
    43    40    38    1
    44    15    16    1
    45    24    25    1
@<TRIPOS>MOLECULE
*****
 42 45 0 0 0
SMALL
GASTEIGER

@<TRIPOS>ATOM
      1 C         140.4069  145.2659  159.6441 C.3     1  UNL1        0.0949
      2 C         140.5543  143.7798  159.7835 C.2     1  UNL1        0.2269
      3 O         140.4432  142.8985  158.5748 O.2     1  UNL1       -0.2748
      4 N         140.8129  143.1749  161.1315 N.am    1  UNL1       -0.2655
      5 C         140.9480  143.9252  162.4234 C.3     1  UNL1        0.1206
      6 C         141.2004  142.9275  163.5147 C.ar    1  UNL1       -0.0030
      7 C         141.4139  143.0872  164.9908 C.ar    1  UNL1        0.0155
      8 C         141.6483  141.8799  165.8495 C.ar    1  UNL1        0.1054
      9 C         141.6693  140.5130  165.2322 C.ar    1  UNL1        0.0181
     10 C         141.4558  140.3533  163.7561 C.ar    1  UNL1       -0.0011
     11 C         141.2214  141.5606  162.8973 C.ar    1  UNL1        0.0022
     12 C         140.9819  141.7135  161.4245 C.3     1  UNL1        0.1750
     13 C         140.9219  140.6004  160.4208 C.2     1  UNL1        0.2485
     14 O         139.7049  139.7273  160.3409 O.2     1  UNL1       -0.2726
     15 N         142.0791  140.3603  159.4969 N.am    1  UNL1       -0.2823
     16 H         142.8779  140.9334  159.5494 H       1  UNL1        0.1549
     17 C         142.0191  139.2472  158.4933 C.ar    1  UNL1        0.0503
     18 C         142.7327  137.9556  158.7622 C.ar    1  UNL1        0.0144
     19 C         142.6727  136.8424  157.7585 C.ar    1  UNL1       -0.0002
     20 C         141.8991  137.0211  156.4859 C.ar    1  UNL1        0.0182
     21 C         141.1855  138.3128  156.2170 C.ar    1  UNL1       -0.0002
     22 C         141.2455  139.4259  157.2206 C.ar    1  UNL1        0.0144
     23 C         141.8391  135.9080  155.4822 C.3     1  UNL1        0.2827
     24 O         140.3562  135.8062  155.6839 O.3     1  UNL1       -0.3692
     25 H         139.9999  135.1056  155.1155 H       1  UNL1        0.2112
     26 C         141.7789  134.7949  154.4784 C.3     1  UNL1        0.4311
     27 F         141.7188  133.6819  153.4747 F       1  UNL1       -0.1669
     28 F         141.2151  133.8810  155.5257 F       1  UNL1       -0.1669
     29 F         142.1050  135.2505  153.7924 F       1  UNL1       -0.1669
     30 C         143.3219  136.0098  155.2804 C.3     1  UNL1        0.4311
     31 F         144.8047  136.1116  155.0786 F       1  UNL1       -0.1669
     32 F         143.8549  134.7301  155.8535 F       1  UNL1       -0.1669
     33 F         143.3234  136.8050  154.8903 F       1  UNL1       -0.1669
     34 S         141.8618  142.0395  167.3257 S.O2    1  UNL1        0.0097
     35 O         140.4272  141.6776  167.5724 O.2     1  UNL1       -0.1686
     36 O         143.2964  142.4014  167.0790 O.2     1  UNL1       -0.1686
     37 C         142.0753  142.1991  168.8018 C.3     1  UNL1        0.1698
     38 C         141.9959  141.0038  169.7047 C.3     1  UNL1        0.1017
     39 C         142.1721  139.6005  170.2042 C.3     1  UNL1        0.0169
     40 C         142.7044  139.9894  168.8568 C.3     1  UNL1        0.0169
     41 C         141.2597  141.6033  170.8660 C.1     1  UNL1        0.0728
     42 N         140.5236  142.2027  172.0275 N.1     1  UNL1       -0.1959
@<TRIPOS>BOND
     1     1     2    1
     2     2     3    2
     3     2     4   am
     4     4     5    1
     5     5     6    1
     6     6     7   ar
     7     7     8   ar
     8     8    34    1
     9    34    35    2
    10    34    36    2
    11    34    37    1
    12    37    38    1
    13    38    41    1
    14    41    42    3
    15    38    39    1
    16    39    40    1
    17     8     9   ar
    18     9    10   ar
    19    10    11   ar
    20    11    12    1
    21    12    13    1
    22    13    14    2
    23    13    15   am
    24    15    17    1
    25    17    18   ar
    26    18    19   ar
    27    19    20   ar
    28    20    23    1
    29    23    24    1
    30    23    26    1
    31    26    27    1
    32    26    28    1
    33    26    29    1
    34    23    30    1
    35    30    31    1
    36    30    32    1
    37    30    33    1
    38    20    21   ar
    39    21    22   ar
    40    12     4    1
    41    22    17   ar
    42    11     6   ar
    43    40    38    1
    44    15    16    1
    45    24    25    1
@<TRIPOS>MOLECULE
*****
 42 45 0 0 0
SMALL
GASTEIGER

@<TRIPOS>ATOM
      1 C         145.7802  142.0547  156.3620 C.3     1  UNL1        0.0949
      2 C         144.9000  140.9028  156.7470 C.2     1  UNL1        0.2269
      3 O         145.1626  139.5375  156.1839 O.2     1  UNL1       -0.2748
      4 N         143.7573  141.1161  157.6950 N.am    1  UNL1       -0.2655
      5 C         143.3741  142.4172  158.3354 C.3     1  UNL1        0.1206
      6 C         142.1771  142.1710  159.2052 C.ar    1  UNL1       -0.0030
      7 C         141.3658  143.0825  160.0775 C.ar    1  UNL1        0.0155
      8 C         140.1979  142.5405  160.8471 C.ar    1  UNL1        0.1054
      9 C         139.8413  141.0872  160.7442 C.ar    1  UNL1        0.0181
     10 C         140.6526  140.1758  159.8719 C.ar    1  UNL1       -0.0011
     11 C         141.8205  140.7177  159.1024 C.ar    1  UNL1        0.0022
     12 C         142.7971  140.0657  158.1690 C.3     1  UNL1        0.1750
     13 C         142.8111  138.6175  157.7783 C.2     1  UNL1        0.2485
     14 O         143.0836  137.5646  158.8111 O.2     1  UNL1       -0.2726
     15 N         142.5524  138.2223  156.3545 N.am    1  UNL1       -0.2823
     16 H         142.3735  138.9134  155.6765 H       1  UNL1        0.1549
     17 C         142.5663  136.7741  155.9638 C.ar    1  UNL1        0.0503
     18 C         141.2772  136.0609  155.6820 C.ar    1  UNL1        0.0144
     19 C         141.2912  134.6127  155.2913 C.ar    1  UNL1       -0.0002
     20 C         142.5943  133.8779  155.1824 C.ar    1  UNL1        0.0182
     21 C         143.8834  134.5912  155.4642 C.ar    1  UNL1       -0.0002
     22 C         143.8694  136.0393  155.8549 C.ar    1  UNL1        0.0144
     23 C         142.6083  132.4297  154.7917 C.3     1  UNL1        0.2827
     24 O         142.0827  132.7910  153.4340 O.3     1  UNL1       -0.3692
     25 H         141.9780  131.9860  152.9031 H       1  UNL1        0.2112
     26 C         142.6223  130.9816  154.4009 C.3     1  UNL1        0.4311
     27 F         142.6363  129.5334  154.0101 F       1  UNL1       -0.1669
     28 F         141.1294  130.9302  154.5379 F       1  UNL1       -0.1669
     29 F         143.4983  130.9075  154.2925 F       1  UNL1       -0.1669
     30 C         143.1338  132.0684  156.1494 C.3     1  UNL1        0.4311
     31 F         143.6594  131.7072  157.5069 F       1  UNL1       -0.1669
     32 F         144.6195  131.9949  155.9556 F       1  UNL1       -0.1669
     33 F         142.3512  132.0340  156.5625 F       1  UNL1       -0.1669
     34 S         139.3865  143.4520  161.7195 S.O2    1  UNL1        0.0097
     35 O         139.5734  144.5646  160.7310 O.2     1  UNL1       -0.1686
     36 O         139.1996  142.3394  162.7079 O.2     1  UNL1       -0.1686
     37 C         138.5752  144.3633  162.5919 C.3     1  UNL1        0.1698
     38 C         138.9971  144.6169  164.0089 C.3     1  UNL1        0.1017
     39 C         138.9253  144.7233  165.5034 C.3     1  UNL1        0.0169
     40 C         137.7221  144.2813  164.7242 C.3     1  UNL1        0.0169
     41 C         140.4185  145.0405  163.7855 C.1     1  UNL1        0.0728
     42 N         141.8401  145.4641  163.5621 N.1     1  UNL1       -0.1959
@<TRIPOS>BOND
     1     1     2    1
     2     2     3    2
     3     2     4   am
     4     4     5    1
     5     5     6    1
     6     6     7   ar
     7     7     8   ar
     8     8    34    1
     9    34    35    2
    10    34    36    2
    11    34    37    1
    12    37    38    1
    13    38    41    1
    14    41    42    3
    15    38    39    1
    16    39    40    1
    17     8     9   ar
    18     9    10   ar
    19    10    11   ar
    20    11    12    1
    21    12    13    1
    22    13    14    2
    23    13    15   am
    24    15    17    1
    25    17    18   ar
    26    18    19   ar
    27    19    20   ar
    28    20    23    1
    29    23    24    1
    30    23    26    1
    31    26    27    1
    32    26    28    1
    33    26    29    1
    34    23    30    1
    35    30    31    1
    36    30    32    1
    37    30    33    1
    38    20    21   ar
    39    21    22   ar
    40    12     4    1
    41    22    17   ar
    42    11     6   ar
    43    40    38    1
    44    15    16    1
    45    24    25    1
@<TRIPOS>MOLECULE
*****
 42 45 0 0 0
SMALL
GASTEIGER

@<TRIPOS>ATOM
      1 C         139.5382  146.5352  160.4040 C.3     1  UNL1        0.0949
      2 C         140.1518  145.3937  161.1592 C.2     1  UNL1        0.2269
      3 O         139.7310  145.1168  162.5721 O.2     1  UNL1       -0.2748
      4 N         141.1861  144.5290  160.5015 N.am    1  UNL1       -0.2655
      5 C         141.7040  144.6833  159.1023 C.3     1  UNL1        0.1206
      6 C         142.7222  143.6079  158.8636 C.ar    1  UNL1       -0.0030
      7 C         143.5622  143.2686  157.6682 C.ar    1  UNL1        0.0155
      8 C         144.5136  142.1104  157.7245 C.ar    1  UNL1        0.1054
      9 C         144.6249  141.2914  158.9763 C.ar    1  UNL1        0.0181
     10 C         143.7848  141.6307  160.1717 C.ar    1  UNL1       -0.0011
     11 C         142.8335  142.7890  160.1154 C.ar    1  UNL1        0.0022
     12 C         141.8841  143.3582  161.1276 C.3     1  UNL1        0.1750
     13 C         141.6704  142.8465  162.5214 C.2     1  UNL1        0.2485
     14 O         141.0021  141.5215  162.7396 O.2     1  UNL1       -0.2726
     15 N         142.1250  143.6599  163.6969 N.am    1  UNL1       -0.2823
     16 H         142.5636  144.5295  163.5537 H       1  UNL1        0.1549
     17 C         141.9112  143.1481  165.0907 C.ar    1  UNL1        0.0503
     18 C         143.0595  142.5656  165.8601 C.ar    1  UNL1        0.0144
     19 C         142.8457  142.0539  167.2538 C.ar    1  UNL1       -0.0002
     20 C         141.4837  142.1247  167.8780 C.ar    1  UNL1        0.0182
     21 C         140.3354  142.7073  167.1086 C.ar    1  UNL1       -0.0002
     22 C         140.5491  143.2190  165.7149 C.ar    1  UNL1        0.0144
     23 C         141.2698  141.6130  169.2718 C.3     1  UNL1        0.2827
     24 O         141.6057  140.2248  168.8135 O.3     1  UNL1       -0.3692
     25 H         141.5477  139.6135  169.5644 H       1  UNL1        0.2112
     26 C         141.0560  141.1012  170.6655 C.3     1  UNL1        0.4311
     27 F         140.8421  140.5894  172.0591 F       1  UNL1       -0.1669
     28 F         139.8840  140.2949  170.1895 F       1  UNL1       -0.1669
     29 F         141.7274  141.5370  171.0447 F       1  UNL1       -0.1669
     30 C         140.9339  143.0013  169.7300 C.3     1  UNL1        0.4311
     31 F         140.5980  144.3894  170.1883 F       1  UNL1       -0.1669
     32 F         139.4974  142.9067  170.1516 F       1  UNL1       -0.1669
     33 F         141.7283  143.3611  169.5753 F       1  UNL1       -0.1669
     34 S         145.3538  141.7710  156.5290 S.O2    1  UNL1        0.0097
     35 O         146.5546  142.3638  157.2047 O.2     1  UNL1       -0.1686
     36 O         144.1529  141.1782  155.8534 O.2     1  UNL1       -0.1686
     37 C         146.1939  141.4317  155.3336 C.3     1  UNL1        0.1698
     38 C         147.0124  142.4964  154.6655 C.3     1  UNL1        0.1017
     39 C         147.3519  143.7416  153.9011 C.3     1  UNL1        0.0169
     40 C         145.9171  143.3858  154.1563 C.3     1  UNL1        0.0169
     41 C         148.3919  141.9767  154.9427 C.1     1  UNL1        0.0728
     42 N         149.7715  141.4570  155.2201 N.1     1  UNL1       -0.1959
@<TRIPOS>BOND
     1     1     2    1
     2     2     3    2
     3     2     4   am
     4     4     5    1
     5     5     6    1
     6     6     7   ar
     7     7     8   ar
     8     8    34    1
     9    34    35    2
    10    34    36    2
    11    34    37    1
    12    37    38    1
    13    38    41    1
    14    41    42    3
    15    38    39    1
    16    39    40    1
    17     8     9   ar
    18     9    10   ar
    19    10    11   ar
    20    11    12    1
    21    12    13    1
    22    13    14    2
    23    13    15   am
    24    15    17    1
    25    17    18   ar
    26    18    19   ar
    27    19    20   ar
    28    20    23    1
    29    23    24    1
    30    23    26    1
    31    26    27    1
    32    26    28    1
    33    26    29    1
    34    23    30    1
    35    30    31    1
    36    30    32    1
    37    30    33    1
    38    20    21   ar
    39    21    22   ar
    40    12     4    1
    41    22    17   ar
    42    11     6   ar
    43    40    38    1
    44    15    16    1
    45    24    25    1
@<TRIPOS>MOLECULE
*****
 42 45 0 0 0
SMALL
GASTEIGER

@<TRIPOS>ATOM
      1 C         145.2505  141.2054  156.2581 C.3     1  UNL1        0.0949
      2 C         144.3085  140.0571  156.4676 C.2     1  UNL1        0.2269
      3 O         144.5455  138.7544  155.7628 O.2     1  UNL1       -0.2748
      4 N         143.1294  140.2115  157.3819 N.am    1  UNL1       -0.2655
      5 C         142.7656  141.4470  158.1507 C.3     1  UNL1        0.1206
      6 C         141.5184  141.1566  158.9318 C.ar    1  UNL1       -0.0030
      7 C         140.7009  141.9979  159.8666 C.ar    1  UNL1        0.0155
      8 C         139.4762  141.4240  160.5154 C.ar    1  UNL1        0.1054
      9 C         139.0692  140.0089  160.2294 C.ar    1  UNL1        0.0181
     10 C         139.8867  139.1677  159.2946 C.ar    1  UNL1       -0.0011
     11 C         141.1114  139.7415  158.6458 C.ar    1  UNL1        0.0022
     12 C         142.1070  139.1574  157.6879 C.3     1  UNL1        0.1750
     13 C         142.0842  137.7639  157.1334 C.2     1  UNL1        0.2485
     14 O         140.8876  137.2802  156.3692 O.2     1  UNL1       -0.2726
     15 N         143.2581  136.8539  157.3431 N.am    1  UNL1       -0.2823
     16 H         144.0436  137.1713  157.8447 H       1  UNL1        0.1549
     17 C         143.2353  135.4603  156.7886 C.ar    1  UNL1        0.0503
     18 C         143.3542  134.2838  157.7115 C.ar    1  UNL1        0.0144
     19 C         143.3314  132.8903  157.1570 C.ar    1  UNL1       -0.0002
     20 C         143.1897  132.6733  155.6795 C.ar    1  UNL1        0.0182
     21 C         143.0709  133.8498  154.7566 C.ar    1  UNL1       -0.0002
     22 C         143.0937  135.2433  155.3112 C.ar    1  UNL1        0.0144
     23 C         143.1669  131.2797  155.1249 C.3     1  UNL1        0.2827
     24 O         144.6308  131.1385  155.4199 O.3     1  UNL1       -0.3692
     25 H         144.9325  130.2584  155.1454 H       1  UNL1        0.2112
     26 C         143.1442  129.8862  154.5703 C.3     1  UNL1        0.4311
     27 F         143.1215  128.4927  154.0157 F       1  UNL1       -0.1669
     28 F         144.0744  130.3082  153.4719 F       1  UNL1       -0.1669
     29 F         142.5973  129.5386  155.1742 F       1  UNL1       -0.1669
     30 C         141.7030  131.4210  154.8299 C.3     1  UNL1        0.4311
     31 F         140.2392  131.5623  154.5349 F       1  UNL1       -0.1669
     32 F         141.6378  131.4715  153.3321 F       1  UNL1       -0.1669
     33 F         141.4231  131.4213  155.6702 F       1  UNL1       -0.1669
     34 S         138.6586  142.2653  161.4502 S.O2    1  UNL1        0.0097
     35 O         139.2796  141.5659  162.6228 O.2     1  UNL1       -0.1686
     36 O         138.0375  142.9646  160.2775 O.2     1  UNL1       -0.1686
     37 C         137.8410  143.1065  162.3849 C.3     1  UNL1        0.1698
     38 C         138.5189  144.0637  163.3200 C.3     1  UNL1        0.1017
     39 C         138.9115  144.7486  164.5954 C.3     1  UNL1        0.0169
     40 C         137.9329  143.6121  164.6249 C.3     1  UNL1        0.0169
     41 C         139.3402  144.8477  162.3398 C.1     1  UNL1        0.0728
     42 N         140.1616  145.6316  161.3596 N.1     1  UNL1       -0.1959
@<TRIPOS>BOND
     1     1     2    1
     2     2     3    2
     3     2     4   am
     4     4     5    1
     5     5     6    1
     6     6     7   ar
     7     7     8   ar
     8     8    34    1
     9    34    35    2
    10    34    36    2
    11    34    37    1
    12    37    38    1
    13    38    41    1
    14    41    42    3
    15    38    39    1
    16    39    40    1
    17     8     9   ar
    18     9    10   ar
    19    10    11   ar
    20    11    12    1
    21    12    13    1
    22    13    14    2
    23    13    15   am
    24    15    17    1
    25    17    18   ar
    26    18    19   ar
    27    19    20   ar
    28    20    23    1
    29    23    24    1
    30    23    26    1
    31    26    27    1
    32    26    28    1
    33    26    29    1
    34    23    30    1
    35    30    31    1
    36    30    32    1
    37    30    33    1
    38    20    21   ar
    39    21    22   ar
    40    12     4    1
    41    22    17   ar
    42    11     6   ar
    43    40    38    1
    44    15    16    1
    45    24    25    1
@<TRIPOS>MOLECULE
*****
 42 45 0 0 0
SMALL
GASTEIGER

@<TRIPOS>ATOM
      1 C         144.9069  142.5306  158.3307 C.3     1  UNL1        0.0949
      2 C         143.8662  142.2137  159.3633 C.2     1  UNL1        0.2269
      3 O         144.2214  142.2446  160.8202 O.2     1  UNL1       -0.2748
      4 N         142.4701  141.8658  158.9389 N.am    1  UNL1       -0.2655
      5 C         141.9697  141.7949  157.5266 C.3     1  UNL1        0.1206
      6 C         140.5197  141.4131  157.5672 C.ar    1  UNL1       -0.0030
      7 C         139.5087  141.1944  156.4810 C.ar    1  UNL1        0.0155
      8 C         138.1018  140.8106  156.8321 C.ar    1  UNL1        0.1054
      9 C         137.7060  140.6454  158.2695 C.ar    1  UNL1        0.0181
     10 C         138.7171  140.8641  159.3557 C.ar    1  UNL1       -0.0011
     11 C         140.1239  141.2479  159.0045 C.ar    1  UNL1        0.0022
     12 C         141.3294  141.5277  159.8523 C.3     1  UNL1        0.1750
     13 C         141.3843  141.4781  161.3505 C.2     1  UNL1        0.2485
     14 O         140.5770  142.4464  162.1631 O.2     1  UNL1       -0.2726
     15 N         142.2467  140.4601  162.0361 N.am    1  UNL1       -0.2823
     16 H         142.7767  139.8245  161.5028 H       1  UNL1        0.1549
     17 C         142.3017  140.4105  163.5343 C.ar    1  UNL1        0.0503
     18 C         141.4167  139.4611  164.2862 C.ar    1  UNL1        0.0144
     19 C         141.4717  139.4115  165.7844 C.ar    1  UNL1       -0.0002
     20 C         142.4116  140.3113  166.5305 C.ar    1  UNL1        0.0182
     21 C         143.2966  141.2607  165.7786 C.ar    1  UNL1       -0.0002
     22 C         143.2416  141.3103  164.2804 C.ar    1  UNL1        0.0144
     23 C         142.4666  140.2618  168.0287 C.3     1  UNL1        0.2827
     24 O         143.2030  138.9569  167.9585 O.3     1  UNL1       -0.3692
     25 H         143.3953  138.6453  168.8567 H       1  UNL1        0.2112
     26 C         142.5217  140.2122  169.5269 C.3     1  UNL1        0.4311
     27 F         142.5768  140.1626  171.0251 F       1  UNL1       -0.1669
     28 F         141.2334  139.4442  169.5488 F       1  UNL1       -0.1669
     29 F         143.2808  140.6587  169.6219 F       1  UNL1       -0.1669
     30 C         141.7303  141.5667  168.0990 C.3     1  UNL1        0.4311
     31 F         140.9940  142.8716  168.1693 F       1  UNL1       -0.1669
     32 F         142.8123  142.5827  168.3162 F       1  UNL1       -0.1669
     33 F         140.9162  141.2377  167.9831 F       1  UNL1       -0.1669
     34 S         137.0906  140.5919  155.7459 S.O2    1  UNL1        0.0097
     35 O         137.4847  139.1466  155.6700 O.2     1  UNL1       -0.1686
     36 O         136.6966  142.0372  155.8218 O.2     1  UNL1       -0.1686
     37 C         136.0795  140.3733  154.6598 C.3     1  UNL1        0.1698
     38 C         134.6403  140.7264  154.8926 C.3     1  UNL1        0.1017
     39 C         133.2736  141.2985  154.6585 C.3     1  UNL1        0.0169
     40 C         134.3492  141.4796  153.6286 C.3     1  UNL1        0.0169
     41 C         134.4319  140.0958  156.2376 C.1     1  UNL1        0.0728
     42 N         134.2234  139.4653  157.5826 N.1     1  UNL1       -0.1959
@<TRIPOS>BOND
     1     1     2    1
     2     2     3    2
     3     2     4   am
     4     4     5    1
     5     5     6    1
     6     6     7   ar
     7     7     8   ar
     8     8    34    1
     9    34    35    2
    10    34    36    2
    11    34    37    1
    12    37    38    1
    13    38    41    1
    14    41    42    3
    15    38    39    1
    16    39    40    1
    17     8     9   ar
    18     9    10   ar
    19    10    11   ar
    20    11    12    1
    21    12    13    1
    22    13    14    2
    23    13    15   am
    24    15    17    1
    25    17    18   ar
    26    18    19   ar
    27    19    20   ar
    28    20    23    1
    29    23    24    1
    30    23    26    1
    31    26    27    1
    32    26    28    1
    33    26    29    1
    34    23    30    1
    35    30    31    1
    36    30    32    1
    37    30    33    1
    38    20    21   ar
    39    21    22   ar
    40    12     4    1
    41    22    17   ar
    42    11     6   ar
    43    40    38    1
    44    15    16    1
    45    24    25    1
@<TRIPOS>MOLECULE
*****
 42 45 0 0 0
SMALL
GASTEIGER

@<TRIPOS>ATOM
      1 C         137.5659  138.0050  161.4590 C.3     1  UNL1        0.0949
      2 C         138.9951  138.4325  161.3021 C.2     1  UNL1        0.2269
      3 O         139.6333  138.4321  159.9447 O.2     1  UNL1       -0.2748
      4 N         139.7860  138.8605  162.5026 N.am    1  UNL1       -0.2655
      5 C         139.2853  138.9127  163.9156 C.3     1  UNL1        0.1206
      6 C         140.4063  139.3959  164.7872 C.ar    1  UNL1       -0.0030
      7 C         140.4945  139.6433  166.2640 C.ar    1  UNL1        0.0155
      8 C         141.7762  140.1372  166.8665 C.ar    1  UNL1        0.1054
      9 C         142.9699  140.3838  165.9922 C.ar    1  UNL1        0.0181
     10 C         142.8818  140.1364  164.5154 C.ar    1  UNL1       -0.0011
     11 C         141.6000  139.6425  163.9129 C.ar    1  UNL1        0.0022
     12 C         141.2166  139.3116  162.5010 C.3     1  UNL1        0.1750
     13 C         142.1074  139.4138  161.2985 C.2     1  UNL1        0.2485
     14 O         143.2133  138.4206  161.0977 O.2     1  UNL1       -0.2726
     15 N         141.8923  140.5094  160.2967 N.am    1  UNL1       -0.2823
     16 H         141.1665  141.1614  160.4284 H       1  UNL1        0.1549
     17 C         142.7832  140.6117  159.0942 C.ar    1  UNL1        0.0503
     18 C         143.8918  141.6217  159.0658 C.ar    1  UNL1        0.0144
     19 C         144.7826  141.7239  157.8633 C.ar    1  UNL1       -0.0002
     20 C         144.5648  140.8161  156.6893 C.ar    1  UNL1        0.0182
     21 C         143.4561  139.8061  156.7177 C.ar    1  UNL1       -0.0002
     22 C         142.5653  139.7039  157.9202 C.ar    1  UNL1        0.0144
     23 C         145.4556  140.9183  155.4867 C.3     1  UNL1        0.2827
     24 O         146.0252  139.5650  155.7938 O.3     1  UNL1       -0.3692
     25 H         146.6911  139.3356  155.1269 H       1  UNL1        0.2112
     26 C         146.3464  141.0204  154.2842 C.3     1  UNL1        0.4311
     27 F         147.2372  141.1224  153.0817 F       1  UNL1       -0.1669
     28 F         147.5214  141.2881  155.1774 F       1  UNL1       -0.1669
     29 F         145.7218  140.8708  153.6742 F       1  UNL1       -0.1669
     30 C         144.8859  142.2715  155.1796 C.3     1  UNL1        0.4311
     31 F         144.3163  143.6247  154.8725 F       1  UNL1       -0.1669
     32 F         143.5270  141.9744  154.6182 F       1  UNL1       -0.1669
     33 F         145.5825  142.7461  155.4517 F       1  UNL1       -0.1669
     34 S         141.8644  140.3846  168.3434 S.O2    1  UNL1        0.0097
     35 O         143.0285  139.4428  168.4317 O.2     1  UNL1       -0.1686
     36 O         140.7003  141.3264  168.2551 O.2     1  UNL1       -0.1686
     37 C         141.9526  140.6320  169.8202 C.3     1  UNL1        0.1698
     38 C         142.2901  142.0009  170.3325 C.3     1  UNL1        0.1017
     39 C         143.0882  143.2322  170.6438 C.3     1  UNL1        0.0169
     40 C         143.7333  142.0804  169.9315 C.3     1  UNL1        0.0169
     41 C         140.9641  142.3966  170.9114 C.1     1  UNL1        0.0728
     42 N         139.6380  142.7922  171.4902 N.1     1  UNL1       -0.1959
@<TRIPOS>BOND
     1     1     2    1
     2     2     3    2
     3     2     4   am
     4     4     5    1
     5     5     6    1
     6     6     7   ar
     7     7     8   ar
     8     8    34    1
     9    34    35    2
    10    34    36    2
    11    34    37    1
    12    37    38    1
    13    38    41    1
    14    41    42    3
    15    38    39    1
    16    39    40    1
    17     8     9   ar
    18     9    10   ar
    19    10    11   ar
    20    11    12    1
    21    12    13    1
    22    13    14    2
    23    13    15   am
    24    15    17    1
    25    17    18   ar
    26    18    19   ar
    27    19    20   ar
    28    20    23    1
    29    23    24    1
    30    23    26    1
    31    26    27    1
    32    26    28    1
    33    26    29    1
    34    23    30    1
    35    30    31    1
    36    30    32    1
    37    30    33    1
    38    20    21   ar
    39    21    22   ar
    40    12     4    1
    41    22    17   ar
    42    11     6   ar
    43    40    38    1
    44    15    16    1
    45    24    25    1
