@<TRIPOS>MOLECULE
*****
 38 42 0 0 0
SMALL
GASTEIGER

@<TRIPOS>ATOM
      1 C         142.0764  144.1480  162.0899 C.2     1  UNL1        0.2352
      2 O         143.3469  144.9453  162.0934 O.2     1  UNL1       -0.2737
      3 N         141.6427  143.4333  160.8445 N.am    1  UNL1       -0.3011
      4 H         140.8088  142.9100  160.8422 H       1  UNL1        0.1497
      5 N         141.3093  145.5541  163.1638 N.3     1  UNL1       -0.3162
      6 C         141.2394  144.0653  163.3320 C.3     1  UNL1        0.1166
      7 C         141.4602  142.6050  163.0689 C.3     1  UNL1        0.0739
      8 C         140.8683  141.5792  163.9893 C.3     1  UNL1        0.2039
      9 N         140.0556  142.0135  165.1730 N.pl3   1  UNL1       -0.1931
     10 C         139.8348  143.4737  165.4361 C.3     1  UNL1        0.2039
     11 C         140.4267  144.4995  164.5156 C.3     1  UNL1        0.0739
     12 H         141.8621  145.7772  162.3361 H       1  UNL1        0.1192
     13 H         141.7464  145.9691  163.9866 H       1  UNL1        0.1192
     14 C         139.4637  140.9877  166.0934 C.2     1  UNL1        0.3205
     15 N         138.4301  140.0285  165.5820 N.2     1  UNL1        0.0097
     16 C         137.8382  139.0027  166.5023 C.2     1  UNL1        0.4717
     17 N         138.2799  138.9359  167.9343 N.2     1  UNL1        0.0158
     18 C         139.3135  139.8950  168.4458 C.2     1  UNL1        0.3714
     19 N         139.9407  140.0680  169.7973 N.2     1  UNL1       -0.0339
     20 C         140.9203  141.2008  169.7122 C.2     1  UNL1        0.2323
     21 C         140.8985  141.7280  168.3080 C.2     1  UNL1        0.0486
     22 C         139.9054  140.9209  167.5253 C.3     1  UNL1        0.2428
     23 C         142.4796  143.5160  159.6024 C.3     1  UNL1        0.0955
     24 C         142.0104  144.3324  158.4348 C.ar    1  UNL1       -0.0044
     25 C         140.8929  145.3178  158.6094 C.ar    1  UNL1       -0.0018
     26 C         140.4237  146.1342  157.4418 C.ar    1  UNL1        0.0111
     27 C         141.0719  145.9653  156.0997 C.ar    1  UNL1        0.0577
     28 CL        140.6026  146.7818  154.9321 Cl      1  UNL1       -0.0822
     29 C         142.1893  144.9800  155.9251 C.ar    1  UNL1        0.0111
     30 C         142.6586  144.1635  157.0927 C.ar    1  UNL1       -0.0018
     31 C         143.7858  142.7822  159.5279 C.3     1  UNL1        0.0414
     32 C         143.8729  141.3575  159.9890 C.3     1  UNL1        0.0741
     33 N         144.3188  141.0477  161.3873 N.3     1  UNL1       -0.2726
     34 C         145.1727  142.0272  162.1366 C.3     1  UNL1        0.0721
     35 C         145.6185  141.7173  163.5348 C.3     1  UNL1        0.0174
     36 C         145.2105  140.4279  164.1837 C.3     1  UNL1        0.0029
     37 C         144.3567  139.4484  163.4344 C.3     1  UNL1        0.0174
     38 C         143.9109  139.7583  162.0361 C.3     1  UNL1        0.0721
@<TRIPOS>BOND
     1     5     6    1
     2     6     1    1
     3     1     2    2
     4     1     3   am
     5     3    23    1
     6    23    31    1
     7    31    32    1
     8    32    33    1
     9    33    34    1
    10    34    35    1
    11    35    36    1
    12    36    37    1
    13    37    38    1
    14    23    24    1
    15    24    25   ar
    16    25    26   ar
    17    26    27   ar
    18    27    28    1
    19    27    29   ar
    20    29    30   ar
    21     6     7    1
    22     7     8    1
    23     8     9    1
    24     9    14    1
    25    14    15    2
    26    15    16    1
    27    16    17    2
    28    17    18    1
    29    18    19    2
    30    19    20    1
    31    20    21    2
    32    21    22    1
    33     9    10    1
    34    10    11    1
    35    11     6    1
    36    38    33    1
    37    30    24   ar
    38    22    14    1
    39    22    18    1
    40     5    12    1
    41     5    13    1
    42     3     4    1
@<TRIPOS>MOLECULE
*****
 38 42 0 0 0
SMALL
GASTEIGER

@<TRIPOS>ATOM
      1 C         142.1894  143.2721  162.6805 C.2     1  UNL1        0.2352
      2 O         141.3342  142.1560  162.1583 O.2     1  UNL1       -0.2737
      3 N         142.3635  144.5244  161.8733 N.am    1  UNL1       -0.3011
      4 H         142.9249  145.2570  162.2161 H       1  UNL1        0.1497
      5 N         143.8874  143.9625  163.2797 N.3     1  UNL1       -0.3162
      6 C         142.8707  143.1361  164.0099 C.3     1  UNL1        0.1166
      7 C         141.6173  142.3569  164.2785 C.3     1  UNL1        0.0739
      8 C         141.3983  141.7288  165.6228 C.3     1  UNL1        0.2039
      9 N         142.4327  141.8797  166.6987 N.pl3   1  UNL1       -0.1931
     10 C         143.6860  142.6589  166.4302 C.3     1  UNL1        0.2039
     11 C         143.9049  143.2871  165.0858 C.3     1  UNL1        0.0739
     12 H         143.5595  144.1450  162.3312 H       1  UNL1        0.1192
     13 H         144.7726  143.4572  163.2421 H       1  UNL1        0.1192
     14 C         142.2136  141.2515  168.0431 C.2     1  UNL1        0.3205
     15 N         142.8204  139.9155  168.3545 N.2     1  UNL1        0.0097
     16 C         142.6013  139.2873  169.6988 C.2     1  UNL1        0.4717
     17 N         141.7755  139.9951  170.7319 N.2     1  UNL1        0.0158
     18 C         141.1687  141.3311  170.4205 C.2     1  UNL1        0.3714
     19 N         140.3144  142.2591  171.2322 N.2     1  UNL1       -0.0339
     20 C         140.0055  143.4609  170.3895 C.2     1  UNL1        0.2323
     21 C         140.6689  143.2756  169.0569 C.2     1  UNL1        0.0486
     22 C         141.3878  141.9593  169.0761 C.3     1  UNL1        0.2428
     23 C         141.6823  144.6605  160.5438 C.3     1  UNL1        0.0955
     24 C         142.3135  144.0771  159.3145 C.ar    1  UNL1       -0.0044
     25 C         141.8520  144.5132  157.9555 C.ar    1  UNL1       -0.0018
     26 C         142.4831  143.9298  156.7261 C.ar    1  UNL1        0.0111
     27 C         143.5758  142.9103  156.8558 C.ar    1  UNL1        0.0577
     28 CL        144.2070  142.3270  155.6264 Cl      1  UNL1       -0.0822
     29 C         144.0373  142.4743  158.2148 C.ar    1  UNL1        0.0111
     30 C         143.4061  143.0577  159.4442 C.ar    1  UNL1       -0.0018
     31 C         140.3699  145.3800  160.4437 C.3     1  UNL1        0.0414
     32 C         139.6879  145.8723  161.6858 C.3     1  UNL1        0.0741
     33 N         139.0614  144.8944  162.6351 N.3     1  UNL1       -0.2726
     34 C         139.1925  145.0971  164.1155 C.3     1  UNL1        0.0721
     35 C         138.5660  144.1192  165.0647 C.3     1  UNL1        0.0174
     36 C         137.8084  142.9385  164.5336 C.3     1  UNL1        0.0029
     37 C         137.6774  142.7358  163.0532 C.3     1  UNL1        0.0174
     38 C         138.3039  143.7137  162.1039 C.3     1  UNL1        0.0721
@<TRIPOS>BOND
     1     5     6    1
     2     6     1    1
     3     1     2    2
     4     1     3   am
     5     3    23    1
     6    23    31    1
     7    31    32    1
     8    32    33    1
     9    33    34    1
    10    34    35    1
    11    35    36    1
    12    36    37    1
    13    37    38    1
    14    23    24    1
    15    24    25   ar
    16    25    26   ar
    17    26    27   ar
    18    27    28    1
    19    27    29   ar
    20    29    30   ar
    21     6     7    1
    22     7     8    1
    23     8     9    1
    24     9    14    1
    25    14    15    2
    26    15    16    1
    27    16    17    2
    28    17    18    1
    29    18    19    2
    30    19    20    1
    31    20    21    2
    32    21    22    1
    33     9    10    1
    34    10    11    1
    35    11     6    1
    36    38    33    1
    37    30    24   ar
    38    22    14    1
    39    22    18    1
    40     5    12    1
    41     5    13    1
    42     3     4    1
@<TRIPOS>MOLECULE
*****
 38 42 0 0 0
SMALL
GASTEIGER

@<TRIPOS>ATOM
      1 C         142.7689  140.3217  162.6449 C.2     1  UNL1        0.2352
      2 O         141.5062  140.9058  162.0844 O.2     1  UNL1       -0.2737
      3 N         144.0056  140.2569  161.7985 N.am    1  UNL1       -0.3011
      4 H         144.8344  139.8735  162.1664 H       1  UNL1        0.1497
      5 N         143.7469  138.8422  163.4021 N.3     1  UNL1       -0.3162
      6 C         142.7952  139.8023  164.0518 C.3     1  UNL1        0.1166
      7 C         141.8343  140.9429  164.2130 C.3     1  UNL1        0.0739
      8 C         141.2302  141.2306  165.5554 C.3     1  UNL1        0.2039
      9 N         141.5869  140.3778  166.7368 N.pl3   1  UNL1       -0.1931
     10 C         142.5477  139.2373  166.5757 C.3     1  UNL1        0.2039
     11 C         143.1518  138.9496  165.2332 C.3     1  UNL1        0.0739
     12 H         143.8380  139.0711  162.4123 H       1  UNL1        0.1192
     13 H         143.3903  137.8915  163.4998 H       1  UNL1        0.1192
     14 C         140.9827  140.6656  168.0793 C.2     1  UNL1        0.3205
     15 N         139.6404  140.0984  168.4348 N.2     1  UNL1        0.0097
     16 C         139.0363  140.3861  169.7772 C.2     1  UNL1        0.4717
     17 N         139.7744  141.2412  170.7642 N.2     1  UNL1        0.0158
     18 C         141.1167  141.8084  170.4087 C.2     1  UNL1        0.3714
     19 N         142.0724  142.6783  171.1703 N.2     1  UNL1       -0.0339
     20 C         143.2672  142.9281  170.2985 C.2     1  UNL1        0.2323
     21 C         143.0500  142.2127  168.9981 C.2     1  UNL1        0.0486
     22 C         141.7209  141.5206  169.0662 C.3     1  UNL1        0.2428
     23 C         143.9795  140.7763  160.3914 C.3     1  UNL1        0.0955
     24 C         143.6013  139.8642  159.2622 C.ar    1  UNL1       -0.0044
     25 C         143.0291  138.5084  159.5527 C.ar    1  UNL1       -0.0018
     26 C         142.6510  137.5963  158.4235 C.ar    1  UNL1        0.0111
     27 C         142.8450  138.0401  157.0039 C.ar    1  UNL1        0.0577
     28 CL        142.4668  137.1280  155.8746 Cl      1  UNL1       -0.0822
     29 C         143.4171  139.3959  156.7134 C.ar    1  UNL1        0.0111
     30 C         143.7954  140.3080  157.8426 C.ar    1  UNL1       -0.0018
     31 C         144.3315  142.2077  160.1137 C.3     1  UNL1        0.0414
     32 C         143.2578  143.2551  160.1002 C.3     1  UNL1        0.0741
     33 N         142.8846  143.9629  161.3689 N.3     1  UNL1       -0.2726
     34 C         141.5184  144.5638  161.5186 C.3     1  UNL1        0.0721
     35 C         141.1453  145.2717  162.7872 C.3     1  UNL1        0.0174
     36 C         142.1384  145.3786  163.9064 C.3     1  UNL1        0.0029
     37 C         143.5046  144.7777  163.7567 C.3     1  UNL1        0.0174
     38 C         143.8777  144.0698  162.4880 C.3     1  UNL1        0.0721
@<TRIPOS>BOND
     1     5     6    1
     2     6     1    1
     3     1     2    2
     4     1     3   am
     5     3    23    1
     6    23    31    1
     7    31    32    1
     8    32    33    1
     9    33    34    1
    10    34    35    1
    11    35    36    1
    12    36    37    1
    13    37    38    1
    14    23    24    1
    15    24    25   ar
    16    25    26   ar
    17    26    27   ar
    18    27    28    1
    19    27    29   ar
    20    29    30   ar
    21     6     7    1
    22     7     8    1
    23     8     9    1
    24     9    14    1
    25    14    15    2
    26    15    16    1
    27    16    17    2
    28    17    18    1
    29    18    19    2
    30    19    20    1
    31    20    21    2
    32    21    22    1
    33     9    10    1
    34    10    11    1
    35    11     6    1
    36    38    33    1
    37    30    24   ar
    38    22    14    1
    39    22    18    1
    40     5    12    1
    41     5    13    1
    42     3     4    1
@<TRIPOS>MOLECULE
*****
 38 42 0 0 0
SMALL
GASTEIGER

@<TRIPOS>ATOM
      1 C         143.2456  143.4304  162.6279 C.2     1  UNL1        0.2352
      2 O         144.0143  144.7081  162.4653 O.2     1  UNL1       -0.2737
      3 N         142.3609  142.9411  161.5197 N.am    1  UNL1       -0.3011
      4 H         141.8564  142.1024  161.6265 H       1  UNL1        0.1497
      5 N         144.7883  142.6039  163.4376 N.3     1  UNL1       -0.3162
      6 C         143.3614  142.6419  163.8986 C.3     1  UNL1        0.1166
      7 C         141.8943  142.9537  163.9184 C.3     1  UNL1        0.0739
      8 C         141.0386  142.4639  165.0487 C.3     1  UNL1        0.2039
      9 N         141.6500  141.6621  166.1594 N.pl3   1  UNL1       -0.1931
     10 C         143.1170  141.3503  166.1397 C.3     1  UNL1        0.2039
     11 C         143.9728  141.8402  165.0093 C.3     1  UNL1        0.0739
     12 H         144.8750  143.1129  162.5579 H       1  UNL1        0.1192
     13 H         145.0752  141.6349  163.2994 H       1  UNL1        0.1192
     14 C         140.7942  141.1723  167.2898 C.2     1  UNL1        0.3205
     15 N         141.0181  141.6910  168.6793 N.2     1  UNL1        0.0097
     16 C         140.1624  141.2012  169.8096 C.2     1  UNL1        0.4717
     17 N         139.0827  140.1926  169.5505 N.2     1  UNL1        0.0158
     18 C         138.8588  139.6739  168.1610 C.2     1  UNL1        0.3714
     19 N         137.8786  138.6839  167.6050 N.2     1  UNL1       -0.0339
     20 C         138.1285  138.5619  166.1311 C.2     1  UNL1        0.2323
     21 C         139.2632  139.4765  165.7760 C.2     1  UNL1        0.0486
     22 C         139.7146  140.1637  167.0306 C.3     1  UNL1        0.2428
     23 C         142.2450  143.7296  160.2489 C.3     1  UNL1        0.0955
     24 C         142.9869  143.2883  159.0222 C.ar    1  UNL1       -0.0044
     25 C         142.4356  143.5952  157.6613 C.ar    1  UNL1       -0.0018
     26 C         143.1774  143.1540  156.4346 C.ar    1  UNL1        0.0111
     27 C         144.4706  142.4058  156.5688 C.ar    1  UNL1        0.0577
     28 CL        145.2125  141.9646  155.3419 Cl      1  UNL1       -0.0822
     29 C         145.0219  142.0989  157.9295 C.ar    1  UNL1        0.0111
     30 C         144.2800  142.5402  159.1564 C.ar    1  UNL1       -0.0018
     31 C         141.3871  144.9593  160.2050 C.3     1  UNL1        0.0414
     32 C         139.8931  144.8305  160.1664 C.3     1  UNL1        0.0741
     33 N         139.1623  144.2253  161.3282 N.3     1  UNL1       -0.2726
     34 C         138.6019  142.8381  161.2213 C.3     1  UNL1        0.0721
     35 C         137.8711  142.2330  162.3831 C.3     1  UNL1        0.0174
     36 C         137.7008  143.0151  163.6517 C.3     1  UNL1        0.0029
     37 C         138.2613  144.4023  163.7585 C.3     1  UNL1        0.0174
     38 C         138.9921  145.0074  162.5967 C.3     1  UNL1        0.0721
@<TRIPOS>BOND
     1     5     6    1
     2     6     1    1
     3     1     2    2
     4     1     3   am
     5     3    23    1
     6    23    31    1
     7    31    32    1
     8    32    33    1
     9    33    34    1
    10    34    35    1
    11    35    36    1
    12    36    37    1
    13    37    38    1
    14    23    24    1
    15    24    25   ar
    16    25    26   ar
    17    26    27   ar
    18    27    28    1
    19    27    29   ar
    20    29    30   ar
    21     6     7    1
    22     7     8    1
    23     8     9    1
    24     9    14    1
    25    14    15    2
    26    15    16    1
    27    16    17    2
    28    17    18    1
    29    18    19    2
    30    19    20    1
    31    20    21    2
    32    21    22    1
    33     9    10    1
    34    10    11    1
    35    11     6    1
    36    38    33    1
    37    30    24   ar
    38    22    14    1
    39    22    18    1
    40     5    12    1
    41     5    13    1
    42     3     4    1
@<TRIPOS>MOLECULE
*****
 38 42 0 0 0
SMALL
GASTEIGER

@<TRIPOS>ATOM
      1 C         139.6342  140.7195  164.5720 C.2     1  UNL1        0.2352
      2 O         138.9867  140.4214  165.8918 O.2     1  UNL1       -0.2737
      3 N         141.0477  140.2879  164.3155 N.am    1  UNL1       -0.3011
      4 H         141.4726  140.4836  163.4492 H       1  UNL1        0.1497
      5 N         137.7519  141.1221  164.4555 N.3     1  UNL1       -0.3162
      6 C         138.8683  141.4493  163.5087 C.3     1  UNL1        0.1166
      7 C         140.2507  141.5231  162.9311 C.3     1  UNL1        0.0739
      8 C         140.4795  142.2131  161.6190 C.3     1  UNL1        0.2039
      9 N         139.3259  142.8293  160.8844 N.pl3   1  UNL1       -0.1931
     10 C         137.9435  142.7555  161.4619 C.3     1  UNL1        0.2039
     11 C         137.7147  142.0655  162.7741 C.3     1  UNL1        0.0739
     12 H         138.1236  140.6098  165.2553 H       1  UNL1        0.1192
     13 H         137.0575  140.5482  163.9770 H       1  UNL1        0.1192
     14 C         139.5547  143.5192  159.5723 C.2     1  UNL1        0.3205
     15 N         139.9863  144.9555  159.5455 N.2     1  UNL1        0.0097
     16 C         140.2151  145.6455  158.2334 C.2     1  UNL1        0.4717
     17 N         140.0124  144.8991  156.9481 N.2     1  UNL1        0.0158
     18 C         139.5808  143.4628  156.9750 C.2     1  UNL1        0.3714
     19 N         139.3033  142.4776  155.8785 N.2     1  UNL1       -0.0339
     20 C         138.9029  141.1787  156.5130 C.2     1  UNL1        0.2323
     21 C         138.9330  141.3612  158.0016 C.2     1  UNL1        0.0486
     22 C         139.3520  142.7729  158.2871 C.3     1  UNL1        0.2428
     23 C         141.8137  139.5580  165.3788 C.3     1  UNL1        0.0955
     24 C         142.2920  140.2923  166.5962 C.ar    1  UNL1       -0.0044
     25 C         142.3088  139.6040  167.9289 C.ar    1  UNL1       -0.0018
     26 C         142.7871  140.3382  169.1462 C.ar    1  UNL1        0.0111
     27 C         143.2486  141.7608  169.0309 C.ar    1  UNL1        0.0577
     28 CL        143.7270  142.4950  170.2484 Cl      1  UNL1       -0.0822
     29 C         143.2319  142.4491  167.6984 C.ar    1  UNL1        0.0111
     30 C         142.7535  141.7148  166.4809 C.ar    1  UNL1       -0.0018
     31 C         142.1013  138.0939  165.2247 C.3     1  UNL1        0.0414
     32 C         141.0884  137.1944  164.5806 C.3     1  UNL1        0.0741
     33 N         140.4455  137.5947  163.2858 N.3     1  UNL1       -0.2726
     34 C         141.2968  137.9125  162.0924 C.3     1  UNL1        0.0721
     35 C         140.6539  138.3129  160.7978 C.3     1  UNL1        0.0174
     36 C         139.1596  138.3954  160.6964 C.3     1  UNL1        0.0029
     37 C         138.3082  138.0777  161.8898 C.3     1  UNL1        0.0174
     38 C         138.9512  137.6773  163.1845 C.3     1  UNL1        0.0721
@<TRIPOS>BOND
     1     5     6    1
     2     6     1    1
     3     1     2    2
     4     1     3   am
     5     3    23    1
     6    23    31    1
     7    31    32    1
     8    32    33    1
     9    33    34    1
    10    34    35    1
    11    35    36    1
    12    36    37    1
    13    37    38    1
    14    23    24    1
    15    24    25   ar
    16    25    26   ar
    17    26    27   ar
    18    27    28    1
    19    27    29   ar
    20    29    30   ar
    21     6     7    1
    22     7     8    1
    23     8     9    1
    24     9    14    1
    25    14    15    2
    26    15    16    1
    27    16    17    2
    28    17    18    1
    29    18    19    2
    30    19    20    1
    31    20    21    2
    32    21    22    1
    33     9    10    1
    34    10    11    1
    35    11     6    1
    36    38    33    1
    37    30    24   ar
    38    22    14    1
    39    22    18    1
    40     5    12    1
    41     5    13    1
    42     3     4    1
@<TRIPOS>MOLECULE
*****
 38 42 0 0 0
SMALL
GASTEIGER

@<TRIPOS>ATOM
      1 C         141.8553  140.0290  164.2678 C.2     1  UNL1        0.2352
      2 O         141.4179  141.4613  164.1836 O.2     1  UNL1       -0.2737
      3 N         141.4339  139.1833  165.4327 N.am    1  UNL1       -0.3011
      4 H         141.7210  138.2432  165.4880 H       1  UNL1        0.1497
      5 N         143.3170  138.7770  164.3887 N.3     1  UNL1       -0.3162
      6 C         142.7143  139.4423  163.1871 C.3     1  UNL1        0.1166
      7 C         141.8132  140.3115  162.3607 C.3     1  UNL1        0.0739
      8 C         141.9804  140.3628  160.8710 C.3     1  UNL1        0.2039
      9 N         143.0488  139.5451  160.2075 N.pl3   1  UNL1       -0.1931
     10 C         143.9498  138.6760  161.0338 C.3     1  UNL1        0.2039
     11 C         143.7825  138.6247  162.5236 C.3     1  UNL1        0.0739
     12 H         142.8264  139.0833  165.2288 H       1  UNL1        0.1192
     13 H         144.3025  139.0304  164.4591 H       1  UNL1        0.1192
     14 C         143.2160  139.5965  158.7177 C.2     1  UNL1        0.3205
     15 N         144.3903  140.3124  158.1191 N.2     1  UNL1        0.0097
     16 C         144.5575  140.3638  156.6294 C.2     1  UNL1        0.4717
     17 N         143.5503  139.6993  155.7382 N.2     1  UNL1        0.0158
     18 C         142.3760  138.9834  156.3368 C.2     1  UNL1        0.3714
     19 N         141.2299  138.2413  155.7158 N.2     1  UNL1       -0.0339
     20 C         140.3543  137.7313  156.8218 C.2     1  UNL1        0.2323
     21 C         140.9593  138.1581  158.1264 C.2     1  UNL1        0.0486
     22 C         142.2088  138.9320  157.8266 C.3     1  UNL1        0.2428
     23 C         140.5749  139.7699  166.5135 C.3     1  UNL1        0.0955
     24 C         141.1847  140.6586  167.5567 C.ar    1  UNL1       -0.0044
     25 C         140.5235  141.9561  167.9163 C.ar    1  UNL1       -0.0018
     26 C         141.1333  142.8448  168.9595 C.ar    1  UNL1        0.0111
     27 C         142.4043  142.4360  169.6432 C.ar    1  UNL1        0.0577
     28 CL        143.0141  143.3247  170.6864 Cl      1  UNL1       -0.0822
     29 C         143.0655  141.1385  169.2837 C.ar    1  UNL1        0.0111
     30 C         142.4557  140.2497  168.2404 C.ar    1  UNL1       -0.0018
     31 C         139.1061  139.4677  166.5510 C.3     1  UNL1        0.0414
     32 C         138.5192  138.4779  165.5888 C.3     1  UNL1        0.0741
     33 N         138.4854  138.7877  164.1215 N.3     1  UNL1       -0.2726
     34 C         138.8996  137.7458  163.1252 C.3     1  UNL1        0.0721
     35 C         138.8658  138.0557  161.6580 C.3     1  UNL1        0.0174
     36 C         138.4177  139.4076  161.1871 C.3     1  UNL1        0.0029
     37 C         138.0035  140.4495  162.1834 C.3     1  UNL1        0.0174
     38 C         138.0374  140.1396  163.6507 C.3     1  UNL1        0.0721
@<TRIPOS>BOND
     1     5     6    1
     2     6     1    1
     3     1     2    2
     4     1     3   am
     5     3    23    1
     6    23    31    1
     7    31    32    1
     8    32    33    1
     9    33    34    1
    10    34    35    1
    11    35    36    1
    12    36    37    1
    13    37    38    1
    14    23    24    1
    15    24    25   ar
    16    25    26   ar
    17    26    27   ar
    18    27    28    1
    19    27    29   ar
    20    29    30   ar
    21     6     7    1
    22     7     8    1
    23     8     9    1
    24     9    14    1
    25    14    15    2
    26    15    16    1
    27    16    17    2
    28    17    18    1
    29    18    19    2
    30    19    20    1
    31    20    21    2
    32    21    22    1
    33     9    10    1
    34    10    11    1
    35    11     6    1
    36    38    33    1
    37    30    24   ar
    38    22    14    1
    39    22    18    1
    40     5    12    1
    41     5    13    1
    42     3     4    1
@<TRIPOS>MOLECULE
*****
 38 42 0 0 0
SMALL
GASTEIGER

@<TRIPOS>ATOM
      1 C         142.4747  140.1503  162.7363 C.2     1  UNL1        0.2352
      2 O         143.7113  140.5093  161.9671 O.2     1  UNL1       -0.2737
      3 N         141.1285  140.2528  162.0826 N.am    1  UNL1       -0.3011
      4 H         140.3168  140.0172  162.5875 H       1  UNL1        0.1497
      5 N         143.5958  138.7884  163.5152 N.3     1  UNL1       -0.3162
      6 C         142.5840  139.6890  164.1594 C.3     1  UNL1        0.1166
      7 C         141.5342  140.7499  164.3094 C.3     1  UNL1        0.0739
      8 C         140.9451  141.0366  165.6587 C.3     1  UNL1        0.2039
      9 N         141.4058  140.2624  166.8582 N.pl3   1  UNL1       -0.1931
     10 C         142.4556  139.2016  166.7082 C.3     1  UNL1        0.2039
     11 C         143.0447  138.9149  165.3588 C.3     1  UNL1        0.0739
     12 H         143.6396  138.9864  162.5156 H       1  UNL1        0.1192
     13 H         143.3245  137.8155  163.6576 H       1  UNL1        0.1192
     14 C         140.8167  140.5492  168.2075 C.2     1  UNL1        0.3205
     15 N         139.5038  139.9378  168.5980 N.2     1  UNL1        0.0097
     16 C         138.9147  140.2245  169.9473 C.2     1  UNL1        0.4717
     17 N         139.6385  141.1227  170.9062 N.2     1  UNL1        0.0158
     18 C         140.9514  141.7341  170.5157 C.2     1  UNL1        0.3714
     19 N         141.8876  142.6516  171.2448 N.2     1  UNL1       -0.0339
     20 C         143.0554  142.9319  170.3461 C.2     1  UNL1        0.2323
     21 C         142.8409  142.1877  169.0615 C.2     1  UNL1        0.0486
     22 C         141.5405  141.4474  169.1664 C.3     1  UNL1        0.2428
     23 C         141.0190  140.7141  160.6595 C.3     1  UNL1        0.0955
     24 C         141.0662  139.7152  159.5415 C.ar    1  UNL1       -0.0044
     25 C         139.7916  139.1659  158.9723 C.ar    1  UNL1       -0.0018
     26 C         139.8388  138.1670  157.8543 C.ar    1  UNL1        0.0111
     27 C         141.1604  137.7174  157.3055 C.ar    1  UNL1        0.0577
     28 CL        141.2075  136.7185  156.1874 Cl      1  UNL1       -0.0822
     29 C         142.4349  138.2667  157.8745 C.ar    1  UNL1        0.0111
     30 C         142.3878  139.2657  158.9926 C.ar    1  UNL1       -0.0018
     31 C         140.8625  142.1744  160.3544 C.3     1  UNL1        0.0414
     32 C         141.1451  143.1967  161.4152 C.3     1  UNL1        0.0741
     33 N         140.1109  143.5007  162.4583 N.3     1  UNL1       -0.2726
     34 C         140.4852  144.2896  163.6779 C.3     1  UNL1        0.0721
     35 C         139.4510  144.5936  164.7209 C.3     1  UNL1        0.0174
     36 C         138.0425  144.1087  164.5443 C.3     1  UNL1        0.0029
     37 C         137.6683  143.3198  163.3247 C.3     1  UNL1        0.0174
     38 C         138.7026  143.0158  162.2816 C.3     1  UNL1        0.0721
@<TRIPOS>BOND
     1     5     6    1
     2     6     1    1
     3     1     2    2
     4     1     3   am
     5     3    23    1
     6    23    31    1
     7    31    32    1
     8    32    33    1
     9    33    34    1
    10    34    35    1
    11    35    36    1
    12    36    37    1
    13    37    38    1
    14    23    24    1
    15    24    25   ar
    16    25    26   ar
    17    26    27   ar
    18    27    28    1
    19    27    29   ar
    20    29    30   ar
    21     6     7    1
    22     7     8    1
    23     8     9    1
    24     9    14    1
    25    14    15    2
    26    15    16    1
    27    16    17    2
    28    17    18    1
    29    18    19    2
    30    19    20    1
    31    20    21    2
    32    21    22    1
    33     9    10    1
    34    10    11    1
    35    11     6    1
    36    38    33    1
    37    30    24   ar
    38    22    14    1
    39    22    18    1
    40     5    12    1
    41     5    13    1
    42     3     4    1
@<TRIPOS>MOLECULE
*****
 38 42 0 0 0
SMALL
GASTEIGER

@<TRIPOS>ATOM
      1 C         141.9024  140.1442  164.6377 C.2     1  UNL1        0.2352
      2 O         141.4265  141.5523  164.4355 O.2     1  UNL1       -0.2737
      3 N         141.5161  139.3927  165.8771 N.am    1  UNL1       -0.3011
      4 H         141.8285  138.4685  166.0098 H       1  UNL1        0.1497
      5 N         143.4802  139.0553  164.8458 N.3     1  UNL1       -0.3162
      6 C         142.7645  139.4876  163.6006 C.3     1  UNL1        0.1166
      7 C         141.7493  140.1479  162.7154 C.3     1  UNL1        0.0739
      8 C         141.8448  140.0015  161.2257 C.3     1  UNL1        0.2039
      9 N         142.9554  139.1947  160.6210 N.pl3   1  UNL1       -0.1931
     10 C         143.9706  138.5344  161.5061 C.3     1  UNL1        0.2039
     11 C         143.8751  138.6808  162.9959 C.3     1  UNL1        0.0739
     12 H         143.0003  139.4336  165.6625 H       1  UNL1        0.1192
     13 H         144.4394  139.4016  164.8243 H       1  UNL1        0.1192
     14 C         143.0509  139.0484  159.1312 C.2     1  UNL1        0.3205
     15 N         142.5815  137.7865  158.4700 N.2     1  UNL1        0.0097
     16 C         142.6769  137.6400  156.9803 C.2     1  UNL1        0.4717
     17 N         143.2418  138.7556  156.1516 N.2     1  UNL1        0.0158
     18 C         143.7112  140.0175  156.8128 C.2     1  UNL1        0.3714
     19 N         144.3086  141.2777  156.2605 N.2     1  UNL1       -0.0339
     20 C         144.5823  142.2029  157.4090 C.2     1  UNL1        0.2323
     21 C         144.1542  141.5146  158.6711 C.2     1  UNL1        0.0486
     22 C         143.6157  140.1639  158.3026 C.3     1  UNL1        0.2428
     23 C         140.6540  140.0492  166.9143 C.3     1  UNL1        0.0955
     24 C         141.2700  140.9609  167.9338 C.ar    1  UNL1       -0.0044
     25 C         142.6551  140.6905  168.4422 C.ar    1  UNL1       -0.0018
     26 C         143.2710  141.6021  169.4617 C.ar    1  UNL1        0.0111
     27 C         142.5019  142.7841  169.9729 C.ar    1  UNL1        0.0577
     28 CL        143.1179  143.6958  170.9925 Cl      1  UNL1       -0.0822
     29 C         141.1168  143.0545  169.4646 C.ar    1  UNL1        0.0111
     30 C         140.5008  142.1429  168.4450 C.ar    1  UNL1       -0.0018
     31 C         139.1760  139.7941  166.9318 C.3     1  UNL1        0.0414
     32 C         138.5904  138.7172  166.0672 C.3     1  UNL1        0.0741
     33 N         138.4689  138.9271  164.5870 N.3     1  UNL1       -0.2726
     34 C         137.9927  140.2453  164.0529 C.3     1  UNL1        0.0721
     35 C         137.8712  140.4551  162.5727 C.3     1  UNL1        0.0174
     36 C         138.2260  139.3466  161.6265 C.3     1  UNL1        0.0029
     37 C         138.7023  138.0283  162.1605 C.3     1  UNL1        0.0174
     38 C         138.8238  137.8185  163.6408 C.3     1  UNL1        0.0721
@<TRIPOS>BOND
     1     5     6    1
     2     6     1    1
     3     1     2    2
     4     1     3   am
     5     3    23    1
     6    23    31    1
     7    31    32    1
     8    32    33    1
     9    33    34    1
    10    34    35    1
    11    35    36    1
    12    36    37    1
    13    37    38    1
    14    23    24    1
    15    24    25   ar
    16    25    26   ar
    17    26    27   ar
    18    27    28    1
    19    27    29   ar
    20    29    30   ar
    21     6     7    1
    22     7     8    1
    23     8     9    1
    24     9    14    1
    25    14    15    2
    26    15    16    1
    27    16    17    2
    28    17    18    1
    29    18    19    2
    30    19    20    1
    31    20    21    2
    32    21    22    1
    33     9    10    1
    34    10    11    1
    35    11     6    1
    36    38    33    1
    37    30    24   ar
    38    22    14    1
    39    22    18    1
    40     5    12    1
    41     5    13    1
    42     3     4    1
@<TRIPOS>MOLECULE
*****
 38 42 0 0 0
SMALL
GASTEIGER

@<TRIPOS>ATOM
      1 C         142.0590  141.6190  162.4320 C.2     1  UNL1        0.2352
      2 O         140.9921  141.0148  161.5679 O.2     1  UNL1       -0.2737
      3 N         142.7729  142.8601  161.9849 N.am    1  UNL1       -0.3011
      4 H         143.4731  143.2566  162.5521 H       1  UNL1        0.1497
      5 N         142.8687  139.9082  162.8011 N.3     1  UNL1       -0.3162
      6 C         142.4120  140.9821  163.7434 C.3     1  UNL1        0.1166
      7 C         141.8326  142.2772  164.2304 C.3     1  UNL1        0.0739
      8 C         141.7649  142.5625  165.7014 C.3     1  UNL1        0.2039
      9 N         142.2765  141.5526  166.6856 N.pl3   1  UNL1       -0.1931
     10 C         142.8558  140.2575  166.1987 C.3     1  UNL1        0.2039
     11 C         142.9235  139.9723  164.7276 C.3     1  UNL1        0.0739
     12 H         142.6908  140.2007  161.8403 H       1  UNL1        0.1192
     13 H         142.3580  139.0466  162.9943 H       1  UNL1        0.1192
     14 C         142.2088  141.8379  168.1566 C.2     1  UNL1        0.3205
     15 N         143.3063  142.6149  168.8212 N.2     1  UNL1        0.0097
     16 C         143.2386  142.9003  170.2922 C.2     1  UNL1        0.4717
     17 N         142.0733  142.4086  171.0988 N.2     1  UNL1        0.0158
     18 C         140.9758  141.6316  170.4342 C.2     1  UNL1        0.3714
     19 N         139.7124  141.0231  170.9667 N.2     1  UNL1       -0.0339
     20 C         138.9993  140.3618  169.8247 C.2     1  UNL1        0.2323
     21 C         139.8219  140.5615  168.5864 C.2     1  UNL1        0.0486
     22 C         141.0435  141.3463  168.9631 C.3     1  UNL1        0.2428
     23 C         142.4199  143.4971  160.6735 C.3     1  UNL1        0.0955
     24 C         143.0022  142.9618  159.3989 C.ar    1  UNL1       -0.0044
     25 C         143.8826  141.7477  159.4283 C.ar    1  UNL1       -0.0018
     26 C         144.4649  141.2125  158.1538 C.ar    1  UNL1        0.0111
     27 C         144.1667  141.8914  156.8499 C.ar    1  UNL1        0.0577
     28 CL        144.7490  141.3561  155.5753 Cl      1  UNL1       -0.0822
     29 C         143.2863  143.1054  156.8204 C.ar    1  UNL1        0.0111
     30 C         142.7040  143.6407  158.0950 C.ar    1  UNL1       -0.0018
     31 C         141.4847  144.6693  160.6367 C.3     1  UNL1        0.0414
     32 C         140.0018  144.4472  160.6786 C.3     1  UNL1        0.0741
     33 N         139.3169  144.2019  161.9904 N.3     1  UNL1       -0.2726
     34 C         139.6704  145.0332  163.1879 C.3     1  UNL1        0.0721
     35 C         138.9855  144.7879  164.4996 C.3     1  UNL1        0.0174
     36 C         137.9471  143.7114  164.6138 C.3     1  UNL1        0.0029
     37 C         137.5937  142.8801  163.4163 C.3     1  UNL1        0.0174
     38 C         138.2786  143.1254  162.1045 C.3     1  UNL1        0.0721
@<TRIPOS>BOND
     1     5     6    1
     2     6     1    1
     3     1     2    2
     4     1     3   am
     5     3    23    1
     6    23    31    1
     7    31    32    1
     8    32    33    1
     9    33    34    1
    10    34    35    1
    11    35    36    1
    12    36    37    1
    13    37    38    1
    14    23    24    1
    15    24    25   ar
    16    25    26   ar
    17    26    27   ar
    18    27    28    1
    19    27    29   ar
    20    29    30   ar
    21     6     7    1
    22     7     8    1
    23     8     9    1
    24     9    14    1
    25    14    15    2
    26    15    16    1
    27    16    17    2
    28    17    18    1
    29    18    19    2
    30    19    20    1
    31    20    21    2
    32    21    22    1
    33     9    10    1
    34    10    11    1
    35    11     6    1
    36    38    33    1
    37    30    24   ar
    38    22    14    1
    39    22    18    1
    40     5    12    1
    41     5    13    1
    42     3     4    1
