@<TRIPOS>MOLECULE
*****
 36 39 0 0 0
SMALL
GASTEIGER

@<TRIPOS>ATOM
      1 C         141.0261  141.7726  165.2603 C.3     1  UNL1        0.0837
      2 C         140.1435  143.9631  164.1774 C.ar    1  UNL1        0.2211
      3 N         140.0583  144.8867  162.9986 N.ar    1  UNL1       -0.2119
      4 C         140.7705  144.5435  161.7238 C.ar    1  UNL1        0.0844
      5 C         140.6853  145.4672  160.5450 C.ar    1  UNL1        0.0197
      6 C         141.3975  145.1240  159.2703 C.ar    1  UNL1        0.0082
      7 C         142.1949  143.8571  159.1744 C.ar    1  UNL1        0.0347
      8 BR        142.9071  143.5139  157.8996 Br      1  UNL1       -0.0490
      9 C         142.2801  142.9335  160.3532 C.ar    1  UNL1        0.0082
     10 C         141.5679  143.2767  161.6279 C.ar    1  UNL1        0.0181
     11 C         141.6531  142.3530  162.8068 C.ar    1  UNL1        0.0023
     12 C         140.9409  142.6962  164.0815 C.ar    1  UNL1        0.0379
     13 C         138.0174  144.8055  165.4104 C.3     1  UNL1        0.2542
     14 O         139.4313  144.3063  165.4522 O.3     1  UNL1       -0.4563
     15 C         140.1437  140.5617  165.3297 C.ar    1  UNL1        0.0131
     16 C         139.2653  140.1756  166.4827 C.ar    1  UNL1       -0.0015
     17 C         138.5634  138.8995  166.1238 C.ar    1  UNL1       -0.0197
     18 C         137.5882  138.1565  166.9880 C.3     1  UNL1        0.0312
     19 C         139.0079  138.4969  164.7489 C.ar    1  UNL1        0.0034
     20 C         138.5553  137.2805  163.9968 C.3     1  UNL1        0.0378
     21 S         139.9846  139.5241  164.2581 S.2     1  UNL1       -0.0955
     22 C         141.9938  142.0599  166.3698 C.3     1  UNL1        0.1164
     23 O         140.9344  142.8382  167.0923 O.3     1  UNL1       -0.3820
     24 H         141.1340  143.7858  167.0354 H       1  UNL1        0.2107
     25 C         143.0532  141.2816  165.6474 C.ar    1  UNL1        0.0046
     26 C         143.0625  139.7833  165.7180 C.ar    1  UNL1       -0.0019
     27 C         144.1219  139.0050  164.9955 C.ar    1  UNL1        0.0021
     28 C         145.1720  139.7250  164.2026 C.ar    1  UNL1        0.0296
     29 C         145.1628  141.2232  164.1320 C.ar    1  UNL1        0.1399
     30 F         146.2129  141.9433  163.3390 F       1  UNL1       -0.2042
     31 C         144.1034  142.0016  164.8545 C.ar    1  UNL1        0.0276
     32 C         142.9615  142.3473  167.4793 C.3     1  UNL1        0.0491
     33 C         142.4936  142.3359  168.9044 C.3     1  UNL1        0.0750
     34 N         141.8019  141.1250  169.4570 N.3     1  UNL1       -0.2702
     35 C         142.4480  139.7759  169.3454 C.3     1  UNL1        0.0897
     36 C         140.4642  141.2632  170.1213 C.3     1  UNL1        0.0897
@<TRIPOS>BOND
     1    13    14    1
     2    14     2    1
     3     2     3   ar
     4     3     4   ar
     5     4     5   ar
     6     5     6   ar
     7     6     7   ar
     8     7     8    1
     9     7     9   ar
    10     9    10   ar
    11    10    11   ar
    12    11    12   ar
    13     1    12    1
    14     1    15    1
    15    15    16   ar
    16    16    17   ar
    17    17    18    1
    18    17    19   ar
    19    19    20    1
    20    19    21   ar
    21     1    22    1
    22    22    23    1
    23    22    32    1
    24    32    33    1
    25    33    34    1
    26    34    35    1
    27    34    36    1
    28    22    25    1
    29    25    26   ar
    30    26    27   ar
    31    27    28   ar
    32    28    29   ar
    33    29    30    1
    34    29    31   ar
    35    12     2   ar
    36    21    15   ar
    37    31    25   ar
    38    10     4   ar
    39    23    24    1
@<TRIPOS>MOLECULE
*****
 36 39 0 0 0
SMALL
GASTEIGER

@<TRIPOS>ATOM
      1 C         141.5028  141.2699  164.3354 C.3     1  UNL1        0.0837
      2 C         143.0094  139.3358  163.4755 C.ar    1  UNL1        0.2211
      3 N         143.4282  138.4061  162.3754 N.ar    1  UNL1       -0.2119
      4 C         142.7592  138.4809  161.0349 C.ar    1  UNL1        0.0844
      5 C         143.1779  137.5512  159.9347 C.ar    1  UNL1        0.0197
      6 C         142.5089  137.6260  158.5943 C.ar    1  UNL1        0.0082
      7 C         141.4211  138.6305  158.3540 C.ar    1  UNL1        0.0347
      8 BR        140.7520  138.7052  157.0135 Br      1  UNL1       -0.0490
      9 C         141.0023  139.5601  159.4542 C.ar    1  UNL1        0.0082
     10 C         141.6713  139.4853  160.7946 C.ar    1  UNL1        0.0181
     11 C         141.2526  140.4150  161.8948 C.ar    1  UNL1        0.0023
     12 C         141.9216  140.3402  163.2352 C.ar    1  UNL1        0.0379
     13 C         143.2291  138.2440  165.8228 C.3     1  UNL1        0.2542
     14 O         143.6785  139.2610  164.8160 O.3     1  UNL1       -0.4563
     15 C         140.6514  140.7636  165.4617 C.ar    1  UNL1        0.0131
     16 C         139.4792  139.8365  165.3331 C.ar    1  UNL1       -0.0015
     17 C         138.9259  139.5954  166.7063 C.ar    1  UNL1       -0.0197
     18 C         137.7491  138.7285  167.0430 C.3     1  UNL1        0.0312
     19 C         139.7563  140.3734  167.6837 C.ar    1  UNL1        0.0034
     20 C         139.5555  140.4211  169.1694 C.3     1  UNL1        0.0378
     21 S         140.8226  141.0954  166.9145 S.2     1  UNL1       -0.0955
     22 C         141.9356  142.7059  164.3092 C.3     1  UNL1        0.1164
     23 O         143.3674  142.2767  164.4349 O.3     1  UNL1       -0.3820
     24 H         143.6876  142.4766  165.3284 H       1  UNL1        0.2107
     25 C         140.5038  143.1350  164.1836 C.ar    1  UNL1        0.0046
     26 C         139.6686  142.6358  163.0421 C.ar    1  UNL1       -0.0019
     27 C         138.2368  143.0650  162.9164 C.ar    1  UNL1        0.0021
     28 C         137.6402  143.9934  163.9323 C.ar    1  UNL1        0.0296
     29 C         138.4754  144.4926  165.0739 C.ar    1  UNL1        0.1399
     30 F         137.8788  145.4211  166.0898 F       1  UNL1       -0.2042
     31 C         139.9072  144.0635  165.1995 C.ar    1  UNL1        0.0276
     32 C         142.3683  144.1419  164.2831 C.3     1  UNL1        0.0491
     33 C         143.2378  144.6429  163.1683 C.3     1  UNL1        0.0750
     34 N         143.1022  144.0618  161.7921 N.3     1  UNL1       -0.2702
     35 C         141.9309  144.4347  160.9325 C.3     1  UNL1        0.0897
     36 C         144.1379  143.1076  161.2755 C.3     1  UNL1        0.0897
@<TRIPOS>BOND
     1    13    14    1
     2    14     2    1
     3     2     3   ar
     4     3     4   ar
     5     4     5   ar
     6     5     6   ar
     7     6     7   ar
     8     7     8    1
     9     7     9   ar
    10     9    10   ar
    11    10    11   ar
    12    11    12   ar
    13     1    12    1
    14     1    15    1
    15    15    16   ar
    16    16    17   ar
    17    17    18    1
    18    17    19   ar
    19    19    20    1
    20    19    21   ar
    21     1    22    1
    22    22    23    1
    23    22    32    1
    24    32    33    1
    25    33    34    1
    26    34    35    1
    27    34    36    1
    28    22    25    1
    29    25    26   ar
    30    26    27   ar
    31    27    28   ar
    32    28    29   ar
    33    29    30    1
    34    29    31   ar
    35    12     2   ar
    36    21    15   ar
    37    31    25   ar
    38    10     4   ar
    39    23    24    1
@<TRIPOS>MOLECULE
*****
 36 39 0 0 0
SMALL
GASTEIGER

@<TRIPOS>ATOM
      1 C         141.7530  142.2924  162.8284 C.3     1  UNL1        0.0837
      2 C         143.3123  142.6707  164.8718 C.ar    1  UNL1        0.2211
      3 N         143.5582  142.5962  166.3496 N.ar    1  UNL1       -0.2119
      4 C         142.4906  142.0689  167.2620 C.ar    1  UNL1        0.0844
      5 C         142.7366  141.9944  168.7398 C.ar    1  UNL1        0.0197
      6 C         141.6690  141.4672  169.6520 C.ar    1  UNL1        0.0082
      7 C         140.3555  141.0144  169.0865 C.ar    1  UNL1        0.0347
      8 BR        139.2880  140.4871  169.9989 Br      1  UNL1       -0.0490
      9 C         140.1096  141.0889  167.6087 C.ar    1  UNL1        0.0082
     10 C         141.1772  141.6162  166.6965 C.ar    1  UNL1        0.0181
     11 C         140.9313  141.6907  165.2186 C.ar    1  UNL1        0.0023
     12 C         141.9989  142.2179  164.3063 C.ar    1  UNL1        0.0379
     13 C         145.4520  142.2805  163.4507 C.3     1  UNL1        0.2542
     14 O         144.3799  143.1980  163.9595 O.3     1  UNL1       -0.4563
     15 C         141.8339  141.0506  161.9911 C.ar    1  UNL1        0.0131
     16 C         140.9298  140.6979  160.8473 C.ar    1  UNL1       -0.0015
     17 C         141.3703  139.3726  160.2998 C.ar    1  UNL1       -0.0197
     18 C         140.7443  138.6421  159.1490 C.3     1  UNL1        0.0312
     19 C         142.5466  138.9063  161.1053 C.ar    1  UNL1        0.0034
     20 C         143.3036  137.6274  160.9013 C.3     1  UNL1        0.0378
     21 S         142.8331  139.9433  162.1505 S.2     1  UNL1       -0.0955
     22 C         141.4262  143.6089  162.1879 C.3     1  UNL1        0.1164
     23 O         142.7236  143.5653  161.4363 O.3     1  UNL1       -0.3820
     24 H         143.3401  144.2096  161.8180 H       1  UNL1        0.2107
     25 C         140.1288  143.6524  162.9395 C.ar    1  UNL1        0.0046
     26 C         138.9932  142.7633  162.5276 C.ar    1  UNL1       -0.0019
     27 C         137.6958  142.8069  163.2792 C.ar    1  UNL1        0.0021
     28 C         137.5340  143.7396  164.4427 C.ar    1  UNL1        0.0296
     29 C         138.6696  144.6288  164.8546 C.ar    1  UNL1        0.1399
     30 F         138.5079  145.5616  166.0181 F       1  UNL1       -0.2042
     31 C         139.9670  144.5852  164.1030 C.ar    1  UNL1        0.0276
     32 C         141.0994  144.9253  161.5474 C.3     1  UNL1        0.0491
     33 C         141.3328  145.1234  160.0791 C.3     1  UNL1        0.0750
     34 N         140.9508  144.0468  159.1069 N.3     1  UNL1       -0.2702
     35 C         139.5231  143.5976  159.0081 C.3     1  UNL1        0.0897
     36 C         141.9966  143.4194  158.2336 C.3     1  UNL1        0.0897
@<TRIPOS>BOND
     1    13    14    1
     2    14     2    1
     3     2     3   ar
     4     3     4   ar
     5     4     5   ar
     6     5     6   ar
     7     6     7   ar
     8     7     8    1
     9     7     9   ar
    10     9    10   ar
    11    10    11   ar
    12    11    12   ar
    13     1    12    1
    14     1    15    1
    15    15    16   ar
    16    16    17   ar
    17    17    18    1
    18    17    19   ar
    19    19    20    1
    20    19    21   ar
    21     1    22    1
    22    22    23    1
    23    22    32    1
    24    32    33    1
    25    33    34    1
    26    34    35    1
    27    34    36    1
    28    22    25    1
    29    25    26   ar
    30    26    27   ar
    31    27    28   ar
    32    28    29   ar
    33    29    30    1
    34    29    31   ar
    35    12     2   ar
    36    21    15   ar
    37    31    25   ar
    38    10     4   ar
    39    23    24    1
@<TRIPOS>MOLECULE
*****
 36 39 0 0 0
SMALL
GASTEIGER

@<TRIPOS>ATOM
      1 C         140.8146  142.1334  163.0978 C.3     1  UNL1        0.0837
      2 C         139.9932  143.2407  165.3000 C.ar    1  UNL1        0.2211
      3 N         139.9155  143.2521  166.7979 N.ar    1  UNL1       -0.2119
      4 C         140.5815  142.1676  167.5917 C.ar    1  UNL1        0.0844
      5 C         140.5039  142.1790  169.0897 C.ar    1  UNL1        0.0197
      6 C         141.1699  141.0945  169.8834 C.ar    1  UNL1        0.0082
      7 C         141.9137  139.9986  169.1793 C.ar    1  UNL1        0.0347
      8 BR        142.5797  138.9140  169.9732 Br      1  UNL1       -0.0490
      9 C         141.9913  139.9871  167.6814 C.ar    1  UNL1        0.0082
     10 C         141.3253  141.0716  166.8876 C.ar    1  UNL1        0.0181
     11 C         141.4030  141.0603  165.3896 C.ar    1  UNL1        0.0023
     12 C         140.7369  142.1448  164.5958 C.ar    1  UNL1        0.0379
     13 C         137.8562  144.2509  164.2215 C.3     1  UNL1        0.2542
     14 O         139.3271  144.3253  164.5061 O.3     1  UNL1       -0.4563
     15 C         140.2072  141.0011  162.3239 C.ar    1  UNL1        0.0131
     16 C         140.6765  140.4905  160.9939 C.ar    1  UNL1       -0.0015
     17 C         139.7833  139.3544  160.5921 C.ar    1  UNL1       -0.0197
     18 C         139.8922  138.5509  159.3301 C.3     1  UNL1        0.0312
     19 C         138.7619  139.1629  161.6739 C.ar    1  UNL1        0.0034
     20 C         137.6702  138.1343  161.6836 C.3     1  UNL1        0.0378
     21 S         139.0239  140.1806  162.7442 S.2     1  UNL1       -0.0955
     22 C         141.4996  143.2544  162.3738 C.3     1  UNL1        0.1164
     23 O         140.1936  143.6504  161.7514 O.3     1  UNL1       -0.3820
     24 H         140.1943  143.4031  160.8134 H       1  UNL1        0.2107
     25 C         142.8056  142.8583  162.9963 C.ar    1  UNL1        0.0046
     26 C         143.5624  141.6775  162.4645 C.ar    1  UNL1       -0.0019
     27 C         144.8684  141.2815  163.0870 C.ar    1  UNL1        0.0021
     28 C         145.4176  142.0662  164.2413 C.ar    1  UNL1        0.0296
     29 C         144.6608  143.2470  164.7731 C.ar    1  UNL1        0.1399
     30 F         145.2100  144.0318  165.9275 F       1  UNL1       -0.2042
     31 C         143.3548  143.6431  164.1506 C.ar    1  UNL1        0.0276
     32 C         142.1846  144.3754  161.6498 C.3     1  UNL1        0.0491
     33 C         141.5201  145.0243  160.4720 C.3     1  UNL1        0.0750
     34 N         142.0037  144.7313  159.0827 N.3     1  UNL1       -0.2702
     35 C         142.7959  143.4870  158.8111 C.3     1  UNL1        0.0897
     36 C         141.6949  145.6828  157.9649 C.3     1  UNL1        0.0897
@<TRIPOS>BOND
     1    13    14    1
     2    14     2    1
     3     2     3   ar
     4     3     4   ar
     5     4     5   ar
     6     5     6   ar
     7     6     7   ar
     8     7     8    1
     9     7     9   ar
    10     9    10   ar
    11    10    11   ar
    12    11    12   ar
    13     1    12    1
    14     1    15    1
    15    15    16   ar
    16    16    17   ar
    17    17    18    1
    18    17    19   ar
    19    19    20    1
    20    19    21   ar
    21     1    22    1
    22    22    23    1
    23    22    32    1
    24    32    33    1
    25    33    34    1
    26    34    35    1
    27    34    36    1
    28    22    25    1
    29    25    26   ar
    30    26    27   ar
    31    27    28   ar
    32    28    29   ar
    33    29    30    1
    34    29    31   ar
    35    12     2   ar
    36    21    15   ar
    37    31    25   ar
    38    10     4   ar
    39    23    24    1
@<TRIPOS>MOLECULE
*****
 36 39 0 0 0
SMALL
GASTEIGER

@<TRIPOS>ATOM
      1 C         141.2171  141.6744  162.6278 C.3     1  UNL1        0.0837
      2 C         139.6212  140.9850  164.5586 C.ar    1  UNL1        0.2211
      3 N         139.3376  140.8551  166.0257 N.ar    1  UNL1       -0.2119
      4 C         140.3662  141.2848  167.0294 C.ar    1  UNL1        0.0844
      5 C         140.0826  141.1550  168.4966 C.ar    1  UNL1        0.0197
      6 C         141.1112  141.5846  169.5002 C.ar    1  UNL1        0.0082
      7 C         142.4234  142.1442  169.0367 C.ar    1  UNL1        0.0347
      8 BR        143.4521  142.5739  170.0404 Br      1  UNL1       -0.0490
      9 C         142.7071  142.2740  167.5695 C.ar    1  UNL1        0.0082
     10 C         141.6785  141.8444  166.5659 C.ar    1  UNL1        0.0181
     11 C         141.9621  141.9742  165.0986 C.ar    1  UNL1        0.0023
     12 C         140.9335  141.5446  164.0950 C.ar    1  UNL1        0.0379
     13 C         137.4409  141.4589  163.2275 C.3     1  UNL1        0.2542
     14 O         138.5926  140.5553  163.5549 O.3     1  UNL1       -0.4563
     15 C         140.9548  142.9735  161.9253 C.ar    1  UNL1        0.0131
     16 C         140.2510  144.1638  162.5066 C.ar    1  UNL1       -0.0015
     17 C         140.2115  145.2363  161.4587 C.ar    1  UNL1       -0.0197
     18 C         139.5999  146.5973  161.6127 C.3     1  UNL1        0.0312
     19 C         140.8909  144.7089  160.2297 C.ar    1  UNL1        0.0034
     20 C         141.0780  145.4499  158.9390 C.3     1  UNL1        0.0378
     21 S         141.3503  143.3104  160.5181 S.2     1  UNL1       -0.0955
     22 C         141.7630  140.5051  161.8631 C.3     1  UNL1        0.1164
     23 O         140.4300  140.3149  161.2022 O.3     1  UNL1       -0.3820
     24 H         139.9965  139.5285  161.5690 H       1  UNL1        0.2107
     25 C         143.0961  140.6953  162.5239 C.ar    1  UNL1        0.0046
     26 C         143.9154  141.9151  162.2225 C.ar    1  UNL1       -0.0019
     27 C         145.2485  142.1053  162.8834 C.ar    1  UNL1        0.0021
     28 C         145.7623  141.0757  163.8457 C.ar    1  UNL1        0.0296
     29 C         144.9429  139.8560  164.1471 C.ar    1  UNL1        0.1399
     30 F         145.4567  138.8264  165.1095 F       1  UNL1       -0.2042
     31 C         143.6099  139.6658  163.4862 C.ar    1  UNL1        0.0276
     32 C         142.3090  139.3359  161.0984 C.3     1  UNL1        0.0491
     33 C         141.5004  138.0788  160.9720 C.3     1  UNL1        0.0750
     34 N         140.5845  137.6612  162.0841 N.3     1  UNL1       -0.2702
     35 C         141.1551  137.1525  163.3746 C.3     1  UNL1        0.0897
     36 C         139.0980  137.7524  161.9057 C.3     1  UNL1        0.0897
@<TRIPOS>BOND
     1    13    14    1
     2    14     2    1
     3     2     3   ar
     4     3     4   ar
     5     4     5   ar
     6     5     6   ar
     7     6     7   ar
     8     7     8    1
     9     7     9   ar
    10     9    10   ar
    11    10    11   ar
    12    11    12   ar
    13     1    12    1
    14     1    15    1
    15    15    16   ar
    16    16    17   ar
    17    17    18    1
    18    17    19   ar
    19    19    20    1
    20    19    21   ar
    21     1    22    1
    22    22    23    1
    23    22    32    1
    24    32    33    1
    25    33    34    1
    26    34    35    1
    27    34    36    1
    28    22    25    1
    29    25    26   ar
    30    26    27   ar
    31    27    28   ar
    32    28    29   ar
    33    29    30    1
    34    29    31   ar
    35    12     2   ar
    36    21    15   ar
    37    31    25   ar
    38    10     4   ar
    39    23    24    1
@<TRIPOS>MOLECULE
*****
 36 39 0 0 0
SMALL
GASTEIGER

@<TRIPOS>ATOM
      1 C         140.9155  141.1147  164.3095 C.3     1  UNL1        0.0837
      2 C         141.6851  139.4770  162.4450 C.ar    1  UNL1        0.2211
      3 N         141.5378  138.9266  161.0575 N.ar    1  UNL1       -0.2119
      4 C         140.4736  139.4633  160.1467 C.ar    1  UNL1        0.0844
      5 C         140.3264  138.9128  158.7592 C.ar    1  UNL1        0.0197
      6 C         139.2622  139.4496  157.8485 C.ar    1  UNL1        0.0082
      7 C         138.3453  140.5367  158.3253 C.ar    1  UNL1        0.0347
      8 BR        137.2810  141.0734  157.4145 Br      1  UNL1       -0.0490
      9 C         138.4925  141.0872  159.7128 C.ar    1  UNL1        0.0082
     10 C         139.5567  140.5505  160.6235 C.ar    1  UNL1        0.0181
     11 C         139.7040  141.1009  162.0111 C.ar    1  UNL1        0.0023
     12 C         140.7682  140.5642  162.9218 C.ar    1  UNL1        0.0379
     13 C         144.0981  138.5837  162.8048 C.3     1  UNL1        0.2542
     14 O         142.7493  138.9403  163.3558 O.3     1  UNL1       -0.4563
     15 C         140.1375  140.5124  165.4417 C.ar    1  UNL1        0.0131
     16 C         140.3043  140.8366  166.8968 C.ar    1  UNL1       -0.0015
     17 C         139.3260  140.0048  167.6721 C.ar    1  UNL1       -0.0197
     18 C         139.1500  140.0103  169.1617 C.3     1  UNL1        0.0312
     19 C         138.5546  139.1666  166.6961 C.ar    1  UNL1        0.0034
     20 C         137.4717  138.1867  167.0385 C.3     1  UNL1        0.0378
     21 S         139.0562  139.4803  165.3177 S.2     1  UNL1       -0.0955
     22 C         141.8408  142.2673  164.5647 C.3     1  UNL1        0.1164
     23 O         142.8873  141.3164  165.0654 O.3     1  UNL1       -0.3820
     24 H         142.9597  141.3937  166.0296 H       1  UNL1        0.2107
     25 C         140.7944  143.2182  164.0640 C.ar    1  UNL1        0.0046
     26 C         141.0112  143.9642  162.7809 C.ar    1  UNL1       -0.0019
     27 C         139.9647  144.9152  162.2802 C.ar    1  UNL1        0.0021
     28 C         138.7015  145.1201  163.0627 C.ar    1  UNL1        0.0296
     29 C         138.4847  144.3741  164.3458 C.ar    1  UNL1        0.1399
     30 F         137.2215  144.5790  165.1283 F       1  UNL1       -0.2042
     31 C         139.5312  143.4232  164.8465 C.ar    1  UNL1        0.0276
     32 C         142.7661  143.4200  164.8200 C.3     1  UNL1        0.0491
     33 C         144.2511  143.2184  164.7547 C.3     1  UNL1        0.0750
     34 N         144.8934  142.7849  163.4703 N.3     1  UNL1       -0.2702
     35 C         144.5435  143.4764  162.1861 C.3     1  UNL1        0.0897
     36 C         145.8855  141.6599  163.4702 C.3     1  UNL1        0.0897
@<TRIPOS>BOND
     1    13    14    1
     2    14     2    1
     3     2     3   ar
     4     3     4   ar
     5     4     5   ar
     6     5     6   ar
     7     6     7   ar
     8     7     8    1
     9     7     9   ar
    10     9    10   ar
    11    10    11   ar
    12    11    12   ar
    13     1    12    1
    14     1    15    1
    15    15    16   ar
    16    16    17   ar
    17    17    18    1
    18    17    19   ar
    19    19    20    1
    20    19    21   ar
    21     1    22    1
    22    22    23    1
    23    22    32    1
    24    32    33    1
    25    33    34    1
    26    34    35    1
    27    34    36    1
    28    22    25    1
    29    25    26   ar
    30    26    27   ar
    31    27    28   ar
    32    28    29   ar
    33    29    30    1
    34    29    31   ar
    35    12     2   ar
    36    21    15   ar
    37    31    25   ar
    38    10     4   ar
    39    23    24    1
@<TRIPOS>MOLECULE
*****
 36 39 0 0 0
SMALL
GASTEIGER

@<TRIPOS>ATOM
      1 C         140.3671  141.2794  163.5175 C.3     1  UNL1        0.0837
      2 C         139.8075  143.0013  165.3808 C.ar    1  UNL1        0.2211
      3 N         139.9130  143.4516  166.8077 N.ar    1  UNL1       -0.2119
      4 C         140.6837  142.6301  167.7984 C.ar    1  UNL1        0.0844
      5 C         140.7892  143.0804  169.2253 C.ar    1  UNL1        0.0197
      6 C         141.5598  142.2589  170.2159 C.ar    1  UNL1        0.0082
      7 C         142.2250  140.9872  169.7795 C.ar    1  UNL1        0.0347
      8 BR        142.9956  140.1658  170.7702 Br      1  UNL1       -0.0490
      9 C         142.1195  140.5370  168.3526 C.ar    1  UNL1        0.0082
     10 C         141.3488  141.3584  167.3621 C.ar    1  UNL1        0.0181
     11 C         141.2433  140.9082  165.9351 C.ar    1  UNL1        0.0023
     12 C         140.4727  141.7296  164.9445 C.ar    1  UNL1        0.0379
     13 C         139.6892  144.9950  163.7190 C.3     1  UNL1        0.2542
     14 O         139.0369  143.8228  164.3901 O.3     1  UNL1       -0.4563
     15 C         141.5917  141.2354  162.6524 C.ar    1  UNL1        0.0131
     16 C         141.9975  140.1035  161.7557 C.ar    1  UNL1       -0.0015
     17 C         143.2821  140.4841  161.0812 C.ar    1  UNL1       -0.0197
     18 C         144.0447  139.6449  160.0992 C.3     1  UNL1        0.0312
     19 C         143.6702  141.8513  161.5612 C.ar    1  UNL1        0.0034
     20 C         144.8891  142.6193  161.1434 C.3     1  UNL1        0.0378
     21 S         142.6255  142.3155  162.5322 S.2     1  UNL1       -0.0955
     22 C         139.0369  140.8732  162.9557 C.3     1  UNL1        0.1164
     23 O         139.0888  142.0271  161.9987 O.3     1  UNL1       -0.3820
     24 H         138.4591  142.7091  162.2802 H       1  UNL1        0.2107
     25 C         138.9851  139.7193  163.9126 C.ar    1  UNL1        0.0046
     26 C         139.8171  138.4971  163.6596 C.ar    1  UNL1       -0.0019
     27 C         139.7653  137.3432  164.6166 C.ar    1  UNL1        0.0021
     28 C         138.8815  137.4114  165.8266 C.ar    1  UNL1        0.0296
     29 C         138.0495  138.6336  166.0796 C.ar    1  UNL1        0.1399
     30 F         137.1657  138.7019  167.2897 F       1  UNL1       -0.2042
     31 C         138.1013  139.7875  165.1227 C.ar    1  UNL1        0.0276
     32 C         137.7068  140.4670  162.3938 C.3     1  UNL1        0.0491
     33 C         137.5389  140.2951  160.9132 C.3     1  UNL1        0.0750
     34 N         138.6420  139.6870  160.0989 N.3     1  UNL1       -0.2702
     35 C         139.0801  138.2771  160.3638 C.3     1  UNL1        0.0897
     36 C         139.3071  140.4887  159.0196 C.3     1  UNL1        0.0897
@<TRIPOS>BOND
     1    13    14    1
     2    14     2    1
     3     2     3   ar
     4     3     4   ar
     5     4     5   ar
     6     5     6   ar
     7     6     7   ar
     8     7     8    1
     9     7     9   ar
    10     9    10   ar
    11    10    11   ar
    12    11    12   ar
    13     1    12    1
    14     1    15    1
    15    15    16   ar
    16    16    17   ar
    17    17    18    1
    18    17    19   ar
    19    19    20    1
    20    19    21   ar
    21     1    22    1
    22    22    23    1
    23    22    32    1
    24    32    33    1
    25    33    34    1
    26    34    35    1
    27    34    36    1
    28    22    25    1
    29    25    26   ar
    30    26    27   ar
    31    27    28   ar
    32    28    29   ar
    33    29    30    1
    34    29    31   ar
    35    12     2   ar
    36    21    15   ar
    37    31    25   ar
    38    10     4   ar
    39    23    24    1
@<TRIPOS>MOLECULE
*****
 36 39 0 0 0
SMALL
GASTEIGER

@<TRIPOS>ATOM
      1 C         141.1656  141.2789  162.4403 C.3     1  UNL1        0.0837
      2 C         139.7130  140.0124  164.1827 C.ar    1  UNL1        0.2211
      3 N         139.3220  139.7570  165.6081 N.ar    1  UNL1       -0.2119
      4 C         139.9927  140.5128  166.7168 C.ar    1  UNL1        0.0844
      5 C         139.6018  140.2574  168.1422 C.ar    1  UNL1        0.0197
      6 C         140.2724  141.0132  169.2507 C.ar    1  UNL1        0.0082
      7 C         141.3341  142.0243  168.9339 C.ar    1  UNL1        0.0347
      8 BR        142.0048  142.7801  170.0425 Br      1  UNL1       -0.0490
      9 C         141.7251  142.2797  167.5084 C.ar    1  UNL1        0.0082
     10 C         141.0544  141.5240  166.3999 C.ar    1  UNL1        0.0181
     11 C         141.4454  141.7793  164.9744 C.ar    1  UNL1        0.0023
     12 C         140.7747  141.0236  163.8658 C.ar    1  UNL1        0.0379
     13 C         138.9336  137.7622  163.1438 C.3     1  UNL1        0.2542
     14 O         139.0423  139.2566  163.0740 O.3     1  UNL1       -0.4563
     15 C         140.8325  142.5913  161.7948 C.ar    1  UNL1        0.0131
     16 C         140.9210  142.9010  160.3298 C.ar    1  UNL1       -0.0015
     17 C         140.4956  144.3255  160.1306 C.ar    1  UNL1       -0.0197
     18 C         140.4327  145.0518  158.8197 C.3     1  UNL1        0.0312
     19 C         140.1442  144.8963  161.4725 C.ar    1  UNL1        0.0034
     20 C         139.6681  146.2935  161.7391 C.3     1  UNL1        0.0378
     21 S         140.3524  143.8245  162.5011 S.2     1  UNL1       -0.0955
     22 C         141.8897  140.2219  161.6603 C.3     1  UNL1        0.1164
     23 O         140.6246  139.9007  160.9212 O.3     1  UNL1       -0.3820
     24 H         140.2751  139.0510  161.2325 H       1  UNL1        0.2107
     25 C         143.1548  140.5431  162.3995 C.ar    1  UNL1        0.0046
     26 C         143.8499  141.8512  162.1633 C.ar    1  UNL1       -0.0019
     27 C         145.1150  142.1724  162.9024 C.ar    1  UNL1        0.0021
     28 C         145.6851  141.1856  163.8777 C.ar    1  UNL1        0.0296
     29 C         144.9900  139.8775  164.1138 C.ar    1  UNL1        0.1399
     30 F         145.5600  138.8906  165.0892 F       1  UNL1       -0.2042
     31 C         143.7249  139.5563  163.3747 C.ar    1  UNL1        0.0276
     32 C         142.6138  139.1648  160.8804 C.3     1  UNL1        0.0491
     33 C         142.3243  138.9796  159.4203 C.3     1  UNL1        0.0750
     34 N         142.5065  140.1244  158.4684 N.3     1  UNL1       -0.2702
     35 C         143.7707  140.9312  158.4989 C.3     1  UNL1        0.0897
     36 C         141.4246  140.4624  157.4860 C.3     1  UNL1        0.0897
@<TRIPOS>BOND
     1    13    14    1
     2    14     2    1
     3     2     3   ar
     4     3     4   ar
     5     4     5   ar
     6     5     6   ar
     7     6     7   ar
     8     7     8    1
     9     7     9   ar
    10     9    10   ar
    11    10    11   ar
    12    11    12   ar
    13     1    12    1
    14     1    15    1
    15    15    16   ar
    16    16    17   ar
    17    17    18    1
    18    17    19   ar
    19    19    20    1
    20    19    21   ar
    21     1    22    1
    22    22    23    1
    23    22    32    1
    24    32    33    1
    25    33    34    1
    26    34    35    1
    27    34    36    1
    28    22    25    1
    29    25    26   ar
    30    26    27   ar
    31    27    28   ar
    32    28    29   ar
    33    29    30    1
    34    29    31   ar
    35    12     2   ar
    36    21    15   ar
    37    31    25   ar
    38    10     4   ar
    39    23    24    1
@<TRIPOS>MOLECULE
*****
 36 39 0 0 0
SMALL
GASTEIGER

@<TRIPOS>ATOM
      1 C         140.9438  141.2161  162.5340 C.3     1  UNL1        0.0837
      2 C         139.4956  140.0132  164.3245 C.ar    1  UNL1        0.2211
      3 N         139.1209  139.7962  165.7607 N.ar    1  UNL1       -0.2119
      4 C         139.8197  140.5652  166.8426 C.ar    1  UNL1        0.0844
      5 C         139.4450  140.3482  168.2787 C.ar    1  UNL1        0.0197
      6 C         140.1438  141.1172  169.3605 C.ar    1  UNL1        0.0082
      7 C         141.2173  142.1031  169.0062 C.ar    1  UNL1        0.0347
      8 BR        141.9161  142.8721  170.0880 Br      1  UNL1       -0.0490
      9 C         141.5920  142.3201  167.5700 C.ar    1  UNL1        0.0082
     10 C         140.8932  141.5511  166.4882 C.ar    1  UNL1        0.0181
     11 C         141.2679  141.7681  165.0520 C.ar    1  UNL1        0.0023
     12 C         140.5691  140.9991  163.9702 C.ar    1  UNL1        0.0379
     13 C         138.9096  137.7493  163.1925 C.3     1  UNL1        0.2542
     14 O         138.7968  139.2442  163.2426 O.3     1  UNL1       -0.4563
     15 C         140.8055  142.5778  161.9203 C.ar    1  UNL1        0.0131
     16 C         140.1033  143.7536  162.5323 C.ar    1  UNL1       -0.0015
     17 C         140.2089  144.9052  161.5771 C.ar    1  UNL1       -0.0197
     18 C         139.6460  146.2796  161.7873 C.3     1  UNL1        0.0312
     19 C         140.9763  144.4412  160.3747 C.ar    1  UNL1        0.0034
     20 C         141.3155  145.2701  159.1713 C.3     1  UNL1        0.0378
     21 S         141.3450  143.0028  160.5868 S.2     1  UNL1       -0.0955
     22 C         141.4567  140.0714  161.7116 C.3     1  UNL1        0.1164
     23 O         140.2188  140.1240  160.8662 O.3     1  UNL1       -0.3820
     24 H         139.6508  139.3665  161.0771 H       1  UNL1        0.2107
     25 C         142.6947  140.0187  162.5570 C.ar    1  UNL1        0.0046
     26 C         142.8599  138.9325  163.5781 C.ar    1  UNL1       -0.0019
     27 C         144.0978  138.8798  164.4236 C.ar    1  UNL1        0.0021
     28 C         145.1705  139.9134  164.2479 C.ar    1  UNL1        0.0296
     29 C         145.0053  140.9996  163.2268 C.ar    1  UNL1        0.1399
     30 F         146.0781  142.0333  163.0510 F       1  UNL1       -0.2042
     31 C         143.7674  141.0523  162.3813 C.ar    1  UNL1        0.0276
     32 C         141.9697  138.9266  160.8892 C.3     1  UNL1        0.0491
     33 C         142.5717  139.1833  159.5395 C.3     1  UNL1        0.0750
     34 N         141.6841  139.3510  158.3420 N.3     1  UNL1       -0.2702
     35 C         141.7042  140.6354  157.5676 C.3     1  UNL1        0.0897
     36 C         140.7765  138.2342  157.9188 C.3     1  UNL1        0.0897
@<TRIPOS>BOND
     1    13    14    1
     2    14     2    1
     3     2     3   ar
     4     3     4   ar
     5     4     5   ar
     6     5     6   ar
     7     6     7   ar
     8     7     8    1
     9     7     9   ar
    10     9    10   ar
    11    10    11   ar
    12    11    12   ar
    13     1    12    1
    14     1    15    1
    15    15    16   ar
    16    16    17   ar
    17    17    18    1
    18    17    19   ar
    19    19    20    1
    20    19    21   ar
    21     1    22    1
    22    22    23    1
    23    22    32    1
    24    32    33    1
    25    33    34    1
    26    34    35    1
    27    34    36    1
    28    22    25    1
    29    25    26   ar
    30    26    27   ar
    31    27    28   ar
    32    28    29   ar
    33    29    30    1
    34    29    31   ar
    35    12     2   ar
    36    21    15   ar
    37    31    25   ar
    38    10     4   ar
    39    23    24    1
