@<TRIPOS>MOLECULE
*****
 31 34 0 0 0
SMALL
GASTEIGER

@<TRIPOS>ATOM
      1 C         139.5957  140.3118  167.7549 C.ar    1  UNL1       -0.0065
      2 C         140.4488  141.3450  167.0806 C.ar    1  UNL1       -0.0033
      3 C         140.8303  141.1784  165.6395 C.ar    1  UNL1       -0.0048
      4 C         140.3587  139.9785  164.8727 C.ar    1  UNL1       -0.0245
      5 C         139.5056  138.9453  165.5470 C.ar    1  UNL1       -0.0263
      6 C         139.1241  139.1120  166.9881 C.ar    1  UNL1       -0.0075
      7 C         139.0340  137.7454  164.7802 C.3     1  UNL1        0.0277
      8 C         139.4155  137.5788  163.3392 C.3     1  UNL1        0.0248
      9 C         140.2687  138.6121  162.6649 C.3     1  UNL1        0.0801
     10 C         140.7402  139.8119  163.4317 C.3     1  UNL1        0.0458
     11 N         140.6502  138.4454  161.2238 N.am    1  UNL1       -0.2783
     12 C         142.0392  138.0103  160.8612 C.3     1  UNL1        0.1107
     13 C         142.4207  137.8436  159.4201 C.3     1  UNL1        0.0942
     14 N         141.4132  138.1121  158.3417 N.3     1  UNL1       -0.2635
     15 C         140.0243  138.5473  158.7043 C.3     1  UNL1        0.1587
     16 C         139.6428  138.7139  160.1454 C.2     1  UNL1        0.2420
     17 O         138.2539  139.1490  160.5080 O.2     1  UNL1       -0.2734
     18 C         141.7947  137.9455  156.9006 C.3     1  UNL1        0.0726
     19 C         142.9330  137.0434  156.5256 C.3     1  UNL1        0.0173
     20 C         142.7023  135.5693  156.3716 C.3     1  UNL1        0.0014
     21 C         143.4523  134.5985  157.2348 C.3     1  UNL1        0.0000
     22 C         143.2216  133.1244  157.0808 C.3     1  UNL1        0.0000
     23 C         142.2410  132.6210  156.0635 C.3     1  UNL1        0.0000
     24 C         141.4910  133.5917  155.2002 C.3     1  UNL1        0.0000
     25 C         141.7217  135.0659  155.3542 C.3     1  UNL1        0.0000
     26 C         139.2142  140.4784  169.1959 C.3     1  UNL1        0.0991
     27 N         140.1289  141.2080  170.1344 N.3     1  UNL1       -0.2690
     28 C         140.6041  143.7417  169.8102 C.3     1  UNL1        0.0188
     29 C         139.8512  142.6380  170.4922 C.3     1  UNL1        0.0724
     30 C         141.3216  140.5077  170.7151 C.3     1  UNL1        0.0724
     31 C         142.1748  139.6330  169.8452 C.3     1  UNL1        0.0188
@<TRIPOS>BOND
     1    28    29    1
     2    29    27    1
     3    27    30    1
     4    30    31    1
     5    27    26    1
     6    26     1    1
     7     1     2   ar
     8     2     3   ar
     9     3     4   ar
    10     4     5   ar
    11     5     6   ar
    12     5     7    1
    13     7     8    1
    14     8     9    1
    15     9    11    1
    16    11    12    1
    17    12    13    1
    18    13    14    1
    19    14    18    1
    20    18    19    1
    21    19    20    1
    22    20    21    1
    23    21    22    1
    24    22    23    1
    25    23    24    1
    26    24    25    1
    27    14    15    1
    28    15    16    1
    29    16    17    2
    30     9    10    1
    31     6     1   ar
    32    16    11   am
    33    10     4    1
    34    25    20    1
@<TRIPOS>MOLECULE
*****
 31 34 0 0 0
SMALL
GASTEIGER

@<TRIPOS>ATOM
      1 C         139.6843  140.3350  167.6830 C.ar    1  UNL1       -0.0065
      2 C         140.5526  141.3587  167.0137 C.ar    1  UNL1       -0.0033
      3 C         140.9392  141.1887  165.5744 C.ar    1  UNL1       -0.0048
      4 C         140.4575  139.9950  164.8044 C.ar    1  UNL1       -0.0245
      5 C         139.5892  138.9713  165.4737 C.ar    1  UNL1       -0.0263
      6 C         139.2026  139.1413  166.9130 C.ar    1  UNL1       -0.0075
      7 C         139.1075  137.7774  164.7037 C.3     1  UNL1        0.0277
      8 C         139.4941  137.6074  163.2644 C.3     1  UNL1        0.0248
      9 C         140.3624  138.6313  162.5951 C.3     1  UNL1        0.0801
     10 C         140.8441  139.8250  163.3651 C.3     1  UNL1        0.0458
     11 N         140.7490  138.4612  161.1557 N.am    1  UNL1       -0.2783
     12 C         139.7275  138.6631  160.0759 C.3     1  UNL1        0.1107
     13 C         140.1141  138.4931  158.6366 C.3     1  UNL1        0.0942
     14 N         141.5222  138.1212  158.2771 N.3     1  UNL1       -0.2635
     15 C         142.5436  137.9194  159.3569 C.3     1  UNL1        0.1587
     16 C         142.1570  138.0894  160.7962 C.2     1  UNL1        0.2420
     17 O         143.1783  137.8876  161.8760 O.2     1  UNL1       -0.2734
     18 C         141.9088  137.9512  156.8378 C.3     1  UNL1        0.0726
     19 C         141.3234  136.8300  156.0314 C.3     1  UNL1        0.0173
     20 C         141.9429  135.4649  156.0847 C.3     1  UNL1        0.0014
     21 C         143.1864  135.2366  156.8918 C.3     1  UNL1        0.0000
     22 C         143.8059  133.8716  156.9451 C.3     1  UNL1        0.0000
     23 C         143.1819  132.7348  156.1913 C.3     1  UNL1        0.0000
     24 C         141.9384  132.9630  155.3841 C.3     1  UNL1        0.0000
     25 C         141.3188  134.3281  155.3308 C.3     1  UNL1        0.0000
     26 C         139.2977  140.5050  169.1223 C.3     1  UNL1        0.0991
     27 N         140.2310  141.1939  170.0733 N.3     1  UNL1       -0.2690
     28 C         142.7942  140.7890  169.9462 C.3     1  UNL1        0.0188
     29 C         141.4603  140.4868  170.5621 C.3     1  UNL1        0.0724
     30 C         139.9351  142.5900  170.5354 C.3     1  UNL1        0.0724
     31 C         140.4444  143.7632  169.7517 C.3     1  UNL1        0.0188
@<TRIPOS>BOND
     1    28    29    1
     2    29    27    1
     3    27    30    1
     4    30    31    1
     5    27    26    1
     6    26     1    1
     7     1     2   ar
     8     2     3   ar
     9     3     4   ar
    10     4     5   ar
    11     5     6   ar
    12     5     7    1
    13     7     8    1
    14     8     9    1
    15     9    11    1
    16    11    12    1
    17    12    13    1
    18    13    14    1
    19    14    18    1
    20    18    19    1
    21    19    20    1
    22    20    21    1
    23    21    22    1
    24    22    23    1
    25    23    24    1
    26    24    25    1
    27    14    15    1
    28    15    16    1
    29    16    17    2
    30     9    10    1
    31     6     1   ar
    32    16    11   am
    33    10     4    1
    34    25    20    1
@<TRIPOS>MOLECULE
*****
 31 34 0 0 0
SMALL
GASTEIGER

@<TRIPOS>ATOM
      1 C         142.4925  140.6807  167.6936 C.ar    1  UNL1       -0.0065
      2 C         142.7542  141.8254  166.7604 C.ar    1  UNL1       -0.0033
      3 C         142.6203  141.6311  165.2790 C.ar    1  UNL1       -0.0048
      4 C         142.2248  140.2921  164.7310 C.ar    1  UNL1       -0.0245
      5 C         141.9631  139.1473  165.6642 C.ar    1  UNL1       -0.0263
      6 C         142.0970  139.3416  167.1455 C.ar    1  UNL1       -0.0075
      7 C         141.5676  137.8081  165.1161 C.3     1  UNL1        0.0277
      8 C         141.4338  137.6138  163.6348 C.3     1  UNL1        0.0248
      9 C         141.6955  138.7587  162.7016 C.3     1  UNL1        0.0801
     10 C         142.0910  140.0978  163.2496 C.3     1  UNL1        0.0458
     11 N         141.5616  138.5644  161.2202 N.am    1  UNL1       -0.2783
     12 C         140.2248  138.7289  160.5600 C.3     1  UNL1        0.1107
     13 C         140.0909  138.5346  159.0786 C.3     1  UNL1        0.0942
     14 N         141.2939  138.1758  158.2576 N.3     1  UNL1       -0.2635
     15 C         142.6307  138.0113  158.9178 C.3     1  UNL1        0.1587
     16 C         142.7645  138.2056  160.3992 C.2     1  UNL1        0.2420
     17 O         144.1013  138.0410  161.0594 O.2     1  UNL1       -0.2734
     18 C         141.1601  137.9815  156.7762 C.3     1  UNL1        0.0726
     19 C         142.2200  137.2380  156.0185 C.3     1  UNL1        0.0173
     20 C         142.2569  135.7390  156.0563 C.3     1  UNL1        0.0014
     21 C         141.3257  134.9437  155.1901 C.3     1  UNL1        0.0000
     22 C         141.3627  133.4447  155.2279 C.3     1  UNL1        0.0000
     23 C         142.3308  132.7408  156.1318 C.3     1  UNL1        0.0000
     24 C         143.2622  133.5361  156.9981 C.3     1  UNL1        0.0000
     25 C         143.2252  135.0351  156.9603 C.3     1  UNL1        0.0000
     26 C         142.6263  140.8750  169.1749 C.3     1  UNL1        0.0991
     27 N         141.4602  141.3767  169.9739 N.3     1  UNL1       -0.2690
     28 C         140.4630  143.7487  169.6147 C.3     1  UNL1        0.0188
     29 C         141.3815  142.8245  170.3580 C.3     1  UNL1        0.0724
     30 C         140.3728  140.4304  170.3890 C.3     1  UNL1        0.0724
     31 C         139.1236  140.3163  169.5665 C.3     1  UNL1        0.0188
@<TRIPOS>BOND
     1    28    29    1
     2    29    27    1
     3    27    30    1
     4    30    31    1
     5    27    26    1
     6    26     1    1
     7     1     2   ar
     8     2     3   ar
     9     3     4   ar
    10     4     5   ar
    11     5     6   ar
    12     5     7    1
    13     7     8    1
    14     8     9    1
    15     9    11    1
    16    11    12    1
    17    12    13    1
    18    13    14    1
    19    14    18    1
    20    18    19    1
    21    19    20    1
    22    20    21    1
    23    21    22    1
    24    22    23    1
    25    23    24    1
    26    24    25    1
    27    14    15    1
    28    15    16    1
    29    16    17    2
    30     9    10    1
    31     6     1   ar
    32    16    11   am
    33    10     4    1
    34    25    20    1
@<TRIPOS>MOLECULE
*****
 31 34 0 0 0
SMALL
GASTEIGER

@<TRIPOS>ATOM
      1 C         139.5812  140.3479  168.0684 C.ar    1  UNL1       -0.0065
      2 C         140.5337  141.3132  167.4274 C.ar    1  UNL1       -0.0033
      3 C         140.9173  141.1438  165.9872 C.ar    1  UNL1       -0.0048
      4 C         140.3485  140.0091  165.1881 C.ar    1  UNL1       -0.0245
      5 C         139.3961  139.0437  165.8291 C.ar    1  UNL1       -0.0263
      6 C         139.0124  139.2131  167.2692 C.ar    1  UNL1       -0.0075
      7 C         138.8272  137.9089  165.0299 C.3     1  UNL1        0.0277
      8 C         139.2108  137.7395  163.5897 C.3     1  UNL1        0.0248
      9 C         140.1633  138.7049  162.9487 C.3     1  UNL1        0.0801
     10 C         140.7321  139.8397  163.7479 C.3     1  UNL1        0.0458
     11 N         140.5470  138.5355  161.5085 N.am    1  UNL1       -0.2783
     12 C         139.5265  138.7502  160.4303 C.3     1  UNL1        0.1107
     13 C         139.9101  138.5808  158.9901 C.3     1  UNL1        0.0942
     14 N         141.3143  138.1967  158.6281 N.3     1  UNL1       -0.2635
     15 C         142.3347  137.9820  159.7064 C.3     1  UNL1        0.1587
     16 C         141.9510  138.1514  161.1465 C.2     1  UNL1        0.2420
     17 O         142.9715  137.9368  162.2248 O.2     1  UNL1       -0.2734
     18 C         141.6979  138.0273  157.1880 C.3     1  UNL1        0.0726
     19 C         141.3181  136.7761  156.4528 C.3     1  UNL1        0.0173
     20 C         140.3422  136.8414  155.3155 C.3     1  UNL1        0.0014
     21 C         140.7219  136.2996  153.9694 C.3     1  UNL1        0.0000
     22 C         139.7460  136.3649  152.8321 C.3     1  UNL1        0.0000
     23 C         138.3904  136.9720  153.0410 C.3     1  UNL1        0.0000
     24 C         138.0106  137.5139  154.3872 C.3     1  UNL1        0.0000
     25 C         138.9865  137.4486  155.5245 C.3     1  UNL1        0.0000
     26 C         139.1976  140.5173  169.5086 C.3     1  UNL1        0.0991
     27 N         140.0333  141.3754  170.4114 N.3     1  UNL1       -0.2690
     28 C         142.5006  140.5615  170.4209 C.3     1  UNL1        0.0188
     29 C         141.2025  140.7816  171.1397 C.3     1  UNL1        0.0724
     30 C         139.6998  142.8275  170.5861 C.3     1  UNL1        0.0724
     31 C         140.5325  143.8750  169.9084 C.3     1  UNL1        0.0188
@<TRIPOS>BOND
     1    28    29    1
     2    29    27    1
     3    27    30    1
     4    30    31    1
     5    27    26    1
     6    26     1    1
     7     1     2   ar
     8     2     3   ar
     9     3     4   ar
    10     4     5   ar
    11     5     6   ar
    12     5     7    1
    13     7     8    1
    14     8     9    1
    15     9    11    1
    16    11    12    1
    17    12    13    1
    18    13    14    1
    19    14    18    1
    20    18    19    1
    21    19    20    1
    22    20    21    1
    23    21    22    1
    24    22    23    1
    25    23    24    1
    26    24    25    1
    27    14    15    1
    28    15    16    1
    29    16    17    2
    30     9    10    1
    31     6     1   ar
    32    16    11   am
    33    10     4    1
    34    25    20    1
@<TRIPOS>MOLECULE
*****
 31 34 0 0 0
SMALL
GASTEIGER

@<TRIPOS>ATOM
      1 C         139.0292  139.9709  168.2163 C.ar    1  UNL1       -0.0065
      2 C         138.0676  138.9736  167.6412 C.ar    1  UNL1       -0.0033
      3 C         138.0534  138.7108  166.1645 C.ar    1  UNL1       -0.0048
      4 C         139.0007  139.4453  165.2628 C.ar    1  UNL1       -0.0245
      5 C         139.9623  140.4426  165.8379 C.ar    1  UNL1       -0.0263
      6 C         139.9765  140.7054  167.3146 C.ar    1  UNL1       -0.0075
      7 C         140.9097  141.1771  164.9362 C.3     1  UNL1        0.0277
      8 C         140.8955  140.9143  163.4595 C.3     1  UNL1        0.0248
      9 C         139.9338  139.9170  162.8844 C.3     1  UNL1        0.0801
     10 C         138.9865  139.1825  163.7861 C.3     1  UNL1        0.0458
     11 N         139.9196  139.6542  161.4077 N.am    1  UNL1       -0.2783
     12 C         139.1562  140.5640  160.4913 C.3     1  UNL1        0.1107
     13 C         139.1419  140.3012  159.0146 C.3     1  UNL1        0.0942
     14 N         139.8911  139.1286  158.4542 N.3     1  UNL1       -0.2635
     15 C         140.6544  138.2189  159.3706 C.3     1  UNL1        0.1587
     16 C         140.6687  138.4817  160.8473 C.2     1  UNL1        0.2420
     17 O         141.4320  137.5720  161.7636 O.2     1  UNL1       -0.2734
     18 C         139.8768  138.8658  156.9775 C.3     1  UNL1        0.0726
     19 C         139.8662  137.4554  156.4668 C.3     1  UNL1        0.0173
     20 C         141.1445  136.8097  156.0206 C.3     1  UNL1        0.0014
     21 C         141.1200  135.4383  155.4136 C.3     1  UNL1        0.0000
     22 C         142.3983  134.7926  154.9675 C.3     1  UNL1        0.0000
     23 C         143.7011  135.5183  155.1284 C.3     1  UNL1        0.0000
     24 C         143.7257  136.8898  155.7354 C.3     1  UNL1        0.0000
     25 C         142.4474  137.5355  156.1815 C.3     1  UNL1        0.0000
     26 C         139.0434  140.2337  169.6930 C.3     1  UNL1        0.0991
     27 N         140.0799  141.1434  170.2829 N.3     1  UNL1       -0.2690
     28 C         142.1135  139.5694  169.9122 C.3     1  UNL1        0.0188
     29 C         141.3914  140.5838  170.7487 C.3     1  UNL1        0.0724
     30 C         139.8050  142.6128  170.4071 C.3     1  UNL1        0.0724
     31 C         140.5648  143.5920  169.5622 C.3     1  UNL1        0.0188
@<TRIPOS>BOND
     1    28    29    1
     2    29    27    1
     3    27    30    1
     4    30    31    1
     5    27    26    1
     6    26     1    1
     7     1     2   ar
     8     2     3   ar
     9     3     4   ar
    10     4     5   ar
    11     5     6   ar
    12     5     7    1
    13     7     8    1
    14     8     9    1
    15     9    11    1
    16    11    12    1
    17    12    13    1
    18    13    14    1
    19    14    18    1
    20    18    19    1
    21    19    20    1
    22    20    21    1
    23    21    22    1
    24    22    23    1
    25    23    24    1
    26    24    25    1
    27    14    15    1
    28    15    16    1
    29    16    17    2
    30     9    10    1
    31     6     1   ar
    32    16    11   am
    33    10     4    1
    34    25    20    1
@<TRIPOS>MOLECULE
*****
 31 34 0 0 0
SMALL
GASTEIGER

@<TRIPOS>ATOM
      1 C         142.6617  141.3973  166.8289 C.ar    1  UNL1       -0.0065
      2 C         142.8634  142.4466  165.7762 C.ar    1  UNL1       -0.0033
      3 C         142.7005  142.0960  164.3269 C.ar    1  UNL1       -0.0048
      4 C         142.3359  140.6961  163.9302 C.ar    1  UNL1       -0.0245
      5 C         142.1341  139.6468  164.9829 C.ar    1  UNL1       -0.0263
      6 C         142.2970  139.9974  166.4322 C.ar    1  UNL1       -0.0075
      7 C         141.7694  138.2469  164.5863 C.3     1  UNL1        0.0277
      8 C         141.6065  137.8963  163.1369 C.3     1  UNL1        0.0248
      9 C         141.8083  138.9457  162.0842 C.3     1  UNL1        0.0801
     10 C         142.1730  140.3456  162.4809 C.3     1  UNL1        0.0458
     11 N         141.6454  138.5952  160.6349 N.am    1  UNL1       -0.2783
     12 C         142.8489  138.2606  159.8043 C.3     1  UNL1        0.1107
     13 C         142.6860  137.9101  158.3550 C.3     1  UNL1        0.0942
     14 N         141.3196  137.8941  157.7362 N.3     1  UNL1       -0.2635
     15 C         140.1162  138.2286  158.5668 C.3     1  UNL1        0.1587
     16 C         140.2791  138.5792  160.0161 C.2     1  UNL1        0.2420
     17 O         139.0757  138.9137  160.8467 O.2     1  UNL1       -0.2734
     18 C         141.1567  137.5435  156.2869 C.3     1  UNL1        0.0726
     19 C         142.2098  136.7360  155.5876 C.3     1  UNL1        0.0173
     20 C         142.2957  135.2561  155.8171 C.3     1  UNL1        0.0014
     21 C         143.3530  134.6977  156.7227 C.3     1  UNL1        0.0000
     22 C         143.4389  133.2178  156.9522 C.3     1  UNL1        0.0000
     23 C         142.4674  132.2964  156.2760 C.3     1  UNL1        0.0000
     24 C         141.4100  132.8549  155.3703 C.3     1  UNL1        0.0000
     25 C         141.3242  134.3347  155.1409 C.3     1  UNL1        0.0000
     26 C         142.8246  141.7478  168.2782 C.3     1  UNL1        0.0991
     27 N         141.6574  141.6332  169.2134 N.3     1  UNL1       -0.2690
     28 C         142.2046  139.2310  170.0382 C.3     1  UNL1        0.0188
     29 C         141.6706  140.6068  170.3071 C.3     1  UNL1        0.0724
     30 C         140.4769  142.5450  169.0547 C.3     1  UNL1        0.0724
     31 C         140.4483  143.8655  169.7656 C.3     1  UNL1        0.0188
@<TRIPOS>BOND
     1    28    29    1
     2    29    27    1
     3    27    30    1
     4    30    31    1
     5    27    26    1
     6    26     1    1
     7     1     2   ar
     8     2     3   ar
     9     3     4   ar
    10     4     5   ar
    11     5     6   ar
    12     5     7    1
    13     7     8    1
    14     8     9    1
    15     9    11    1
    16    11    12    1
    17    12    13    1
    18    13    14    1
    19    14    18    1
    20    18    19    1
    21    19    20    1
    22    20    21    1
    23    21    22    1
    24    22    23    1
    25    23    24    1
    26    24    25    1
    27    14    15    1
    28    15    16    1
    29    16    17    2
    30     9    10    1
    31     6     1   ar
    32    16    11   am
    33    10     4    1
    34    25    20    1
@<TRIPOS>MOLECULE
*****
 31 34 0 0 0
SMALL
GASTEIGER

@<TRIPOS>ATOM
      1 C         140.1264  145.7412  155.6991 C.ar    1  UNL1       -0.0065
      2 C         139.2428  144.5396  155.5398 C.ar    1  UNL1       -0.0033
      3 C         138.9511  143.6613  156.7202 C.ar    1  UNL1       -0.0048
      4 C         139.5431  143.9846  158.0600 C.ar    1  UNL1       -0.0245
      5 C         140.4267  145.1861  158.2193 C.ar    1  UNL1       -0.0263
      6 C         140.7183  146.0645  157.0389 C.ar    1  UNL1       -0.0075
      7 C         141.0187  145.5094  159.5592 C.3     1  UNL1        0.0277
      8 C         140.7270  144.6311  160.7396 C.3     1  UNL1        0.0248
      9 C         139.8433  143.4295  160.5803 C.3     1  UNL1        0.0801
     10 C         139.2514  143.1062  159.2405 C.3     1  UNL1        0.0458
     11 N         139.5517  142.5511  161.7607 N.am    1  UNL1       -0.2783
     12 C         140.3377  141.2908  161.9701 C.3     1  UNL1        0.1107
     13 C         140.0460  140.4124  163.1506 C.3     1  UNL1        0.0942
     14 N         138.9683  140.7945  164.1216 N.3     1  UNL1       -0.2635
     15 C         138.1824  142.0548  163.9121 C.3     1  UNL1        0.1587
     16 C         138.4741  142.9331  162.7317 C.2     1  UNL1        0.2420
     17 O         137.6882  144.1934  162.5222 O.2     1  UNL1       -0.2734
     18 C         138.6767  139.9161  165.3021 C.3     1  UNL1        0.0726
     19 C         139.7260  139.6971  166.3514 C.3     1  UNL1        0.0173
     20 C         139.8345  140.6411  167.5120 C.3     1  UNL1        0.0014
     21 C         140.3996  142.0159  167.3104 C.3     1  UNL1        0.0000
     22 C         140.5081  142.9598  168.4710 C.3     1  UNL1        0.0000
     23 C         140.0515  142.5291  169.8333 C.3     1  UNL1        0.0000
     24 C         139.4864  141.1543  170.0351 C.3     1  UNL1        0.0000
     25 C         139.3779  140.2103  168.8744 C.3     1  UNL1        0.0000
     26 C         140.4181  146.6195  154.5187 C.3     1  UNL1        0.0991
     27 N         139.9459  148.0432  154.5082 N.3     1  UNL1       -0.2690
     28 C         138.5673  149.9012  155.6904 C.3     1  UNL1        0.0188
     29 C         138.7821  148.4536  155.3610 C.3     1  UNL1        0.0724
     30 C         140.6375  149.0565  153.6451 C.3     1  UNL1        0.0724
     31 C         140.0625  149.4206  152.3084 C.3     1  UNL1        0.0188
@<TRIPOS>BOND
     1    28    29    1
     2    29    27    1
     3    27    30    1
     4    30    31    1
     5    27    26    1
     6    26     1    1
     7     1     2   ar
     8     2     3   ar
     9     3     4   ar
    10     4     5   ar
    11     5     6   ar
    12     5     7    1
    13     7     8    1
    14     8     9    1
    15     9    11    1
    16    11    12    1
    17    12    13    1
    18    13    14    1
    19    14    18    1
    20    18    19    1
    21    19    20    1
    22    20    21    1
    23    21    22    1
    24    22    23    1
    25    23    24    1
    26    24    25    1
    27    14    15    1
    28    15    16    1
    29    16    17    2
    30     9    10    1
    31     6     1   ar
    32    16    11   am
    33    10     4    1
    34    25    20    1
@<TRIPOS>MOLECULE
*****
 31 34 0 0 0
SMALL
GASTEIGER

@<TRIPOS>ATOM
      1 C         139.5084  140.1373  167.9632 C.ar    1  UNL1       -0.0065
      2 C         138.4157  139.2424  167.4583 C.ar    1  UNL1       -0.0033
      3 C         138.1617  139.1270  165.9845 C.ar    1  UNL1       -0.0048
      4 C         139.0004  139.9066  165.0156 C.ar    1  UNL1       -0.0245
      5 C         140.0931  140.8015  165.5205 C.ar    1  UNL1       -0.0263
      6 C         140.3471  140.9169  166.9943 C.ar    1  UNL1       -0.0075
      7 C         140.9319  141.5811  164.5516 C.3     1  UNL1        0.0277
      8 C         140.6778  141.4658  163.0777 C.3     1  UNL1        0.0248
      9 C         139.5850  140.5708  162.5729 C.3     1  UNL1        0.0801
     10 C         138.7463  139.7912  163.5418 C.3     1  UNL1        0.0458
     11 N         139.3310  140.4554  161.0990 N.am    1  UNL1       -0.2783
     12 C         138.7173  141.6022  160.3517 C.3     1  UNL1        0.1107
     13 C         138.4633  141.4868  158.8779 C.3     1  UNL1        0.0942
     14 N         138.8229  140.2247  158.1514 N.3     1  UNL1       -0.2635
     15 C         139.4365  139.0780  158.8987 C.3     1  UNL1        0.1587
     16 C         139.6905  139.1934  160.3725 C.2     1  UNL1        0.2420
     17 O         140.3042  138.0467  161.1198 O.2     1  UNL1       -0.2734
     18 C         138.5688  140.1093  156.6776 C.3     1  UNL1        0.0726
     19 C         137.9725  141.2629  155.9267 C.3     1  UNL1        0.0173
     20 C         136.5447  141.2034  155.4709 C.3     1  UNL1        0.0014
     21 C         136.1802  141.6503  154.0862 C.3     1  UNL1        0.0000
     22 C         134.7524  141.5908  153.6303 C.3     1  UNL1        0.0000
     23 C         133.6891  141.0843  154.5592 C.3     1  UNL1        0.0000
     24 C         134.0535  140.6373  155.9439 C.3     1  UNL1        0.0000
     25 C         135.4813  140.6969  156.3998 C.3     1  UNL1        0.0000
     26 C         139.7625  140.2527  169.4370 C.3     1  UNL1        0.0991
     27 N         140.9359  141.0424  169.9363 N.3     1  UNL1       -0.2690
     28 C         142.4504  138.9352  169.8094 C.3     1  UNL1        0.0188
     29 C         142.2998  140.4189  169.9703 C.3     1  UNL1        0.0724
     30 C         140.7455  142.4557  170.4016 C.3     1  UNL1        0.0724
     31 C         140.4003  143.5304  169.4138 C.3     1  UNL1        0.0188
@<TRIPOS>BOND
     1    28    29    1
     2    29    27    1
     3    27    30    1
     4    30    31    1
     5    27    26    1
     6    26     1    1
     7     1     2   ar
     8     2     3   ar
     9     3     4   ar
    10     4     5   ar
    11     5     6   ar
    12     5     7    1
    13     7     8    1
    14     8     9    1
    15     9    11    1
    16    11    12    1
    17    12    13    1
    18    13    14    1
    19    14    18    1
    20    18    19    1
    21    19    20    1
    22    20    21    1
    23    21    22    1
    24    22    23    1
    25    23    24    1
    26    24    25    1
    27    14    15    1
    28    15    16    1
    29    16    17    2
    30     9    10    1
    31     6     1   ar
    32    16    11   am
    33    10     4    1
    34    25    20    1
@<TRIPOS>MOLECULE
*****
 31 34 0 0 0
SMALL
GASTEIGER

@<TRIPOS>ATOM
      1 C         142.6530  140.8084  166.8372 C.ar    1  UNL1       -0.0065
      2 C         142.6910  139.3157  166.6942 C.ar    1  UNL1       -0.0033
      3 C         142.4758  138.6853  165.3503 C.ar    1  UNL1       -0.0048
      4 C         142.2227  139.5475  164.1493 C.ar    1  UNL1       -0.0245
      5 C         142.1847  141.0401  164.2922 C.ar    1  UNL1       -0.0263
      6 C         142.3999  141.6706  165.6362 C.ar    1  UNL1       -0.0075
      7 C         141.9316  141.9024  163.0912 C.3     1  UNL1        0.0277
      8 C         141.7164  141.2720  161.7472 C.3     1  UNL1        0.0248
      9 C         141.7544  139.7793  161.6043 C.3     1  UNL1        0.0801
     10 C         142.0076  138.9170  162.8053 C.3     1  UNL1        0.0458
     11 N         141.5393  139.1488  160.2603 N.am    1  UNL1       -0.2783
     12 C         140.1486  138.8387  159.7913 C.3     1  UNL1        0.1107
     13 C         139.9334  138.2083  158.4474 C.3     1  UNL1        0.0942
     14 N         141.1090  137.8879  157.5724 N.3     1  UNL1       -0.2635
     15 C         142.4996  138.1980  158.0414 C.3     1  UNL1        0.1587
     16 C         142.7147  138.8285  159.3854 C.2     1  UNL1        0.2420
     17 O         144.1053  139.1385  159.8544 O.2     1  UNL1       -0.2734
     18 C         140.8938  137.2575  156.2284 C.3     1  UNL1        0.0726
     19 C         142.0118  136.5115  155.5623 C.3     1  UNL1        0.0173
     20 C         142.2683  135.0756  155.9120 C.3     1  UNL1        0.0014
     21 C         141.5342  133.9851  155.1897 C.3     1  UNL1        0.0000
     22 C         141.7907  132.5491  155.5394 C.3     1  UNL1        0.0000
     23 C         142.7813  132.2037  156.6115 C.3     1  UNL1        0.0000
     24 C         143.5155  133.2942  157.3339 C.3     1  UNL1        0.0000
     25 C         143.2590  134.7302  156.9841 C.3     1  UNL1        0.0000
     26 C         142.8682  141.4388  168.1812 C.3     1  UNL1        0.0991
     27 N         141.8972  141.1804  169.2949 N.3     1  UNL1       -0.2690
     28 C         142.5128  138.7967  170.1250 C.3     1  UNL1        0.0188
     29 C         142.2665  140.2485  170.4108 C.3     1  UNL1        0.0724
     30 C         140.5568  141.8540  169.2927 C.3     1  UNL1        0.0724
     31 C         140.4529  143.3165  168.9766 C.3     1  UNL1        0.0188
@<TRIPOS>BOND
     1    28    29    1
     2    29    27    1
     3    27    30    1
     4    30    31    1
     5    27    26    1
     6    26     1    1
     7     1     2   ar
     8     2     3   ar
     9     3     4   ar
    10     4     5   ar
    11     5     6   ar
    12     5     7    1
    13     7     8    1
    14     8     9    1
    15     9    11    1
    16    11    12    1
    17    12    13    1
    18    13    14    1
    19    14    18    1
    20    18    19    1
    21    19    20    1
    22    20    21    1
    23    21    22    1
    24    22    23    1
    25    23    24    1
    26    24    25    1
    27    14    15    1
    28    15    16    1
    29    16    17    2
    30     9    10    1
    31     6     1   ar
    32    16    11   am
    33    10     4    1
    34    25    20    1
