@<TRIPOS>MOLECULE
*****
 29 31 0 0 0
SMALL
GASTEIGER

@<TRIPOS>ATOM
      1 C         139.5877  141.6092  165.8208 C.3     1  UNL1        0.1070
      2 O         138.5017  141.3676  164.8149 O.3     1  UNL1       -0.3827
      3 C         140.7326  142.2730  166.5271 C.3     1  UNL1        0.0328
      4 C         141.3311  141.6376  167.7469 C.3     1  UNL1        0.0223
      5 C         140.7847  140.3385  168.2606 C.3     1  UNL1        0.0717
      6 C         139.6398  139.6748  167.5543 C.3     1  UNL1        0.0223
      7 C         139.0413  140.3102  166.3345 C.3     1  UNL1        0.0328
      8 H         138.4891  142.0937  164.1719 H       1  UNL1        0.2107
      9 C         142.6758  145.0621  163.4667 C.3     1  UNL1        0.0342
     10 C         141.3010  144.5508  163.7807 C.ar    1  UNL1        0.0116
     11 C         141.1317  143.3357  164.6437 C.ar    1  UNL1       -0.0033
     12 C         139.7570  142.8244  164.9578 C.ar    1  UNL1        0.0016
     13 C         138.5515  143.5283  164.4089 C.ar    1  UNL1        0.0010
     14 C         138.7207  144.7434  163.5459 C.ar    1  UNL1        0.0360
     15 C         140.0955  145.2547  163.2318 C.ar    1  UNL1        0.1296
     16 O         140.2647  146.4699  162.3688 O.3     1  UNL1       -0.5058
     17 H         139.5117  146.9096  162.0259 H       1  UNL1        0.2922
     18 N         141.3831  139.7031  169.4805 N.am    1  UNL1       -0.3060
     19 C         142.6312  138.8796  169.3614 C.2     1  UNL1        0.2228
     20 O         143.2808  138.6916  168.0225 O.2     1  UNL1       -0.2751
     21 H         140.9567  139.8265  170.3592 H       1  UNL1        0.1494
     22 C         143.2297  138.2442  170.5812 C.3     1  UNL1        0.0897
     23 C         143.6733  136.8118  170.5397 C.3     1  UNL1        0.0359
     24 C         144.6594  136.3026  171.5488 C.ar    1  UNL1       -0.0217
     25 C         144.7413  134.8339  171.8424 C.ar    1  UNL1       -0.0043
     26 C         145.7273  134.3246  172.8515 C.ar    1  UNL1       -0.0003
     27 C         146.6316  135.2840  173.5670 C.ar    1  UNL1       -0.0000
     28 C         146.5497  136.7528  173.2734 C.ar    1  UNL1       -0.0003
     29 C         145.5637  137.2620  172.2643 C.ar    1  UNL1       -0.0043
@<TRIPOS>BOND
     1     9    10    1
     2    10    11   ar
     3    11    12   ar
     4    12     1    1
     5     1     2    1
     6     1     3    1
     7     3     4    1
     8     4     5    1
     9     5    18    1
    10    18    19   am
    11    19    20    2
    12    19    22    1
    13    22    23    1
    14    23    24    1
    15    24    25   ar
    16    25    26   ar
    17    26    27   ar
    18    27    28   ar
    19    28    29   ar
    20     5     6    1
    21     6     7    1
    22    12    13   ar
    23    13    14   ar
    24    14    15   ar
    25    15    16    1
    26    15    10   ar
    27     7     1    1
    28    29    24   ar
    29     2     8    1
    30    18    21    1
    31    16    17    1
@<TRIPOS>MOLECULE
*****
 29 31 0 0 0
SMALL
GASTEIGER

@<TRIPOS>ATOM
      1 C         139.3325  139.7775  168.0270 C.3     1  UNL1        0.1070
      2 O         138.5400  139.8430  169.2988 O.3     1  UNL1       -0.3827
      3 C         140.4408  140.0099  167.0432 C.3     1  UNL1        0.0328
      4 C         140.3648  139.4074  165.6717 C.3     1  UNL1        0.0223
      5 C         139.1805  138.5725  165.2839 C.3     1  UNL1        0.0717
      6 C         138.0722  138.3401  166.2677 C.3     1  UNL1        0.0223
      7 C         138.1482  138.9426  167.6392 C.3     1  UNL1        0.0328
      8 H         139.0171  140.3810  169.9498 H       1  UNL1        0.2107
      9 C         140.4900  144.3850  170.1320 C.3     1  UNL1        0.0342
     10 C         140.8203  142.9389  169.9090 C.ar    1  UNL1        0.0116
     11 C         139.9113  142.0813  169.0795 C.ar    1  UNL1       -0.0033
     12 C         140.2416  140.6352  168.8565 C.ar    1  UNL1        0.0016
     13 C         141.4809  140.0467  169.4630 C.ar    1  UNL1        0.0010
     14 C         142.3899  140.9044  170.2925 C.ar    1  UNL1        0.0360
     15 C         142.0596  142.3505  170.5155 C.ar    1  UNL1        0.1296
     16 O         142.9687  143.2082  171.3450 O.3     1  UNL1       -0.5058
     17 H         143.7428  142.8406  171.7239 H       1  UNL1        0.2922
     18 N         139.1044  137.9699  163.9124 N.am    1  UNL1       -0.3060
     19 C         138.4949  138.7481  162.7841 C.2     1  UNL1        0.2228
     20 O         137.9615  140.1288  163.0275 O.2     1  UNL1       -0.2751
     21 H         139.4545  137.0637  163.7527 H       1  UNL1        0.1494
     22 C         138.4188  138.1456  161.4126 C.3     1  UNL1        0.0897
     23 C         139.5363  138.3615  160.4355 C.3     1  UNL1        0.0359
     24 C         140.8890  138.7862  160.9251 C.ar    1  UNL1       -0.0217
     25 C         141.3076  140.2228  160.8197 C.ar    1  UNL1       -0.0043
     26 C         142.6603  140.6477  161.3092 C.ar    1  UNL1       -0.0003
     27 C         143.5944  139.6360  161.9042 C.ar    1  UNL1       -0.0000
     28 C         143.1757  138.1994  162.0096 C.ar    1  UNL1       -0.0003
     29 C         141.8230  137.7746  161.5200 C.ar    1  UNL1       -0.0043
@<TRIPOS>BOND
     1     9    10    1
     2    10    11   ar
     3    11    12   ar
     4    12     1    1
     5     1     2    1
     6     1     3    1
     7     3     4    1
     8     4     5    1
     9     5    18    1
    10    18    19   am
    11    19    20    2
    12    19    22    1
    13    22    23    1
    14    23    24    1
    15    24    25   ar
    16    25    26   ar
    17    26    27   ar
    18    27    28   ar
    19    28    29   ar
    20     5     6    1
    21     6     7    1
    22    12    13   ar
    23    13    14   ar
    24    14    15   ar
    25    15    16    1
    26    15    10   ar
    27     7     1    1
    28    29    24   ar
    29     2     8    1
    30    18    21    1
    31    16    17    1
@<TRIPOS>MOLECULE
*****
 29 31 0 0 0
SMALL
GASTEIGER

@<TRIPOS>ATOM
      1 C         142.3163  139.4346  167.0925 C.3     1  UNL1        0.1070
      2 O         143.3000  138.8368  168.0543 O.3     1  UNL1       -0.3827
      3 C         141.1888  140.2743  166.5692 C.3     1  UNL1        0.0328
      4 C         140.8169  140.2100  165.1175 C.3     1  UNL1        0.0223
      5 C         141.5725  139.3062  164.1891 C.3     1  UNL1        0.0717
      6 C         142.7000  138.4665  164.7123 C.3     1  UNL1        0.0223
      7 C         143.0719  138.5308  166.1641 C.3     1  UNL1        0.0328
      8 H         143.1500  139.2033  168.9398 H       1  UNL1        0.2107
      9 C         140.4315  143.6327  169.5058 C.3     1  UNL1        0.0342
     10 C         140.9599  142.2300  169.5616 C.ar    1  UNL1        0.0116
     11 C         141.3739  141.5337  168.2992 C.ar    1  UNL1       -0.0033
     12 C         141.9023  140.1309  168.3551 C.ar    1  UNL1        0.0016
     13 C         142.0167  139.4245  169.6733 C.ar    1  UNL1        0.0010
     14 C         141.6027  140.1208  170.9357 C.ar    1  UNL1        0.0360
     15 C         141.0743  141.5235  170.8799 C.ar    1  UNL1        0.1296
     16 O         140.6603  142.2198  172.1424 O.3     1  UNL1       -0.5058
     17 H         140.7318  141.7785  172.9659 H       1  UNL1        0.2922
     18 N         141.2007  139.2419  162.7373 N.am    1  UNL1       -0.3060
     19 C         140.0956  138.3336  162.2857 C.2     1  UNL1        0.2228
     20 O         139.3625  137.4897  163.2859 O.2     1  UNL1       -0.2751
     21 H         141.6819  139.7957  162.0809 H       1  UNL1        0.1494
     22 C         139.7238  138.2692  160.8340 C.3     1  UNL1        0.0897
     23 C         138.7566  139.2634  160.2627 C.3     1  UNL1        0.0359
     24 C         138.4781  140.5436  160.9930 C.ar    1  UNL1       -0.0217
     25 C         137.5923  140.5391  162.2035 C.ar    1  UNL1       -0.0043
     26 C         137.3137  141.8192  162.9339 C.ar    1  UNL1       -0.0003
     27 C         137.9209  143.1041  162.4537 C.ar    1  UNL1       -0.0000
     28 C         138.8067  143.1086  161.2432 C.ar    1  UNL1       -0.0003
     29 C         139.0853  141.8285  160.5128 C.ar    1  UNL1       -0.0043
@<TRIPOS>BOND
     1     9    10    1
     2    10    11   ar
     3    11    12   ar
     4    12     1    1
     5     1     2    1
     6     1     3    1
     7     3     4    1
     8     4     5    1
     9     5    18    1
    10    18    19   am
    11    19    20    2
    12    19    22    1
    13    22    23    1
    14    23    24    1
    15    24    25   ar
    16    25    26   ar
    17    26    27   ar
    18    27    28   ar
    19    28    29   ar
    20     5     6    1
    21     6     7    1
    22    12    13   ar
    23    13    14   ar
    24    14    15   ar
    25    15    16    1
    26    15    10   ar
    27     7     1    1
    28    29    24   ar
    29     2     8    1
    30    18    21    1
    31    16    17    1
@<TRIPOS>MOLECULE
*****
 29 31 0 0 0
SMALL
GASTEIGER

@<TRIPOS>ATOM
      1 C         142.6810  139.7686  167.2240 C.3     1  UNL1        0.1070
      2 O         143.0645  138.7103  168.2154 O.3     1  UNL1       -0.3827
      3 C         142.0954  141.0322  166.6667 C.3     1  UNL1        0.0328
      4 C         142.2247  141.3372  165.2038 C.3     1  UNL1        0.0223
      5 C         142.9395  140.3787  164.2981 C.3     1  UNL1        0.0717
      6 C         143.5250  139.1151  164.8554 C.3     1  UNL1        0.0223
      7 C         143.3958  138.8101  166.3183 C.3     1  UNL1        0.0328
      8 H         142.7459  138.9619  169.0964 H       1  UNL1        0.2107
      9 C         138.6026  140.5935  170.3364 C.3     1  UNL1        0.0342
     10 C         140.0601  140.7721  170.0302 C.ar    1  UNL1        0.0116
     11 C         140.6418  140.1811  168.7802 C.ar    1  UNL1       -0.0033
     12 C         142.0993  140.3596  168.4740 C.ar    1  UNL1        0.0016
     13 C         142.9752  141.1292  169.4177 C.ar    1  UNL1        0.0010
     14 C         142.3935  141.7202  170.6677 C.ar    1  UNL1        0.0360
     15 C         140.9360  141.5416  170.9739 C.ar    1  UNL1        0.1296
     16 O         140.3543  142.1326  172.2239 O.3     1  UNL1       -0.5058
     17 H         140.9015  142.6134  172.8134 H       1  UNL1        0.2922
     18 N         143.0688  140.6836  162.8352 N.am    1  UNL1       -0.3060
     19 C         144.3287  141.3030  162.3067 C.2     1  UNL1        0.2228
     20 O         145.4591  141.6173  163.2412 O.2     1  UNL1       -0.2751
     21 H         142.3269  140.4773  162.2218 H       1  UNL1        0.1494
     22 C         144.4581  141.6080  160.8438 C.3     1  UNL1        0.0897
     23 C         143.8395  142.8525  160.2795 C.3     1  UNL1        0.0359
     24 C         142.8955  143.6658  161.1146 C.ar    1  UNL1       -0.0217
     25 C         141.4649  143.8229  160.6915 C.ar    1  UNL1       -0.0043
     26 C         140.5208  144.6361  161.5265 C.ar    1  UNL1       -0.0003
     27 C         141.0072  145.2923  162.7846 C.ar    1  UNL1       -0.0000
     28 C         142.4377  145.1352  163.2077 C.ar    1  UNL1       -0.0003
     29 C         143.3818  144.3220  162.3727 C.ar    1  UNL1       -0.0043
@<TRIPOS>BOND
     1     9    10    1
     2    10    11   ar
     3    11    12   ar
     4    12     1    1
     5     1     2    1
     6     1     3    1
     7     3     4    1
     8     4     5    1
     9     5    18    1
    10    18    19   am
    11    19    20    2
    12    19    22    1
    13    22    23    1
    14    23    24    1
    15    24    25   ar
    16    25    26   ar
    17    26    27   ar
    18    27    28   ar
    19    28    29   ar
    20     5     6    1
    21     6     7    1
    22    12    13   ar
    23    13    14   ar
    24    14    15   ar
    25    15    16    1
    26    15    10   ar
    27     7     1    1
    28    29    24   ar
    29     2     8    1
    30    18    21    1
    31    16    17    1
@<TRIPOS>MOLECULE
*****
 29 31 0 0 0
SMALL
GASTEIGER

@<TRIPOS>ATOM
      1 C         139.4352  140.0701  167.5684 C.3     1  UNL1        0.1070
      2 O         138.8965  139.6144  168.8921 O.3     1  UNL1       -0.3827
      3 C         140.2862  140.7917  166.5658 C.3     1  UNL1        0.0328
      4 C         140.0509  140.5893  165.0983 C.3     1  UNL1        0.0223
      5 C         138.9647  139.6652  164.6333 C.3     1  UNL1        0.0717
      6 C         138.1137  138.9436  165.6359 C.3     1  UNL1        0.0223
      7 C         138.3490  139.1460  167.1034 C.3     1  UNL1        0.0328
      8 H         139.3950  140.0393  169.6076 H       1  UNL1        0.2107
      9 C         143.3106  140.1558  171.0287 C.3     1  UNL1        0.0342
     10 C         142.2721  140.8787  170.2232 C.ar    1  UNL1        0.0116
     11 C         141.3729  140.1130  169.2986 C.ar    1  UNL1       -0.0033
     12 C         140.3344  140.8359  168.4931 C.ar    1  UNL1        0.0016
     13 C         140.1950  142.3246  168.6123 C.ar    1  UNL1        0.0010
     14 C         141.0942  143.0904  169.5370 C.ar    1  UNL1        0.0360
     15 C         142.1327  142.3674  170.3424 C.ar    1  UNL1        0.1296
     16 O         143.0319  143.1333  171.2671 O.3     1  UNL1       -0.5058
     17 H         142.9448  144.0633  171.3416 H       1  UNL1        0.2922
     18 N         138.7293  139.4628  163.1658 N.am    1  UNL1       -0.3060
     19 C         139.2996  138.2603  162.4737 C.2     1  UNL1        0.2228
     20 O         140.1051  137.2604  163.2492 O.2     1  UNL1       -0.2751
     21 H         138.2006  140.1190  162.6569 H       1  UNL1        0.1494
     22 C         139.0643  138.0577  161.0062 C.3     1  UNL1        0.0897
     23 C         140.0389  138.6079  160.0074 C.3     1  UNL1        0.0359
     24 C         141.4251  138.9833  160.4405 C.ar    1  UNL1       -0.0217
     25 C         142.4610  137.9180  160.6459 C.ar    1  UNL1       -0.0043
     26 C         143.8471  138.2934  161.0789 C.ar    1  UNL1       -0.0003
     27 C         144.1975  139.7340  161.3066 C.ar    1  UNL1       -0.0000
     28 C         143.1616  140.7993  161.1012 C.ar    1  UNL1       -0.0003
     29 C         141.7754  140.4239  160.6682 C.ar    1  UNL1       -0.0043
@<TRIPOS>BOND
     1     9    10    1
     2    10    11   ar
     3    11    12   ar
     4    12     1    1
     5     1     2    1
     6     1     3    1
     7     3     4    1
     8     4     5    1
     9     5    18    1
    10    18    19   am
    11    19    20    2
    12    19    22    1
    13    22    23    1
    14    23    24    1
    15    24    25   ar
    16    25    26   ar
    17    26    27   ar
    18    27    28   ar
    19    28    29   ar
    20     5     6    1
    21     6     7    1
    22    12    13   ar
    23    13    14   ar
    24    14    15   ar
    25    15    16    1
    26    15    10   ar
    27     7     1    1
    28    29    24   ar
    29     2     8    1
    30    18    21    1
    31    16    17    1
@<TRIPOS>MOLECULE
*****
 29 31 0 0 0
SMALL
GASTEIGER

@<TRIPOS>ATOM
      1 C         142.4224  139.5393  166.9462 C.3     1  UNL1        0.1070
      2 O         143.2628  138.7410  167.8983 O.3     1  UNL1       -0.3827
      3 C         141.4189  140.5363  166.4472 C.3     1  UNL1        0.0328
      4 C         141.1768  140.6838  164.9743 C.3     1  UNL1        0.0223
      5 C         141.9382  139.8343  164.0003 C.3     1  UNL1        0.0717
      6 C         142.9417  138.8373  164.4993 C.3     1  UNL1        0.0223
      7 C         143.1838  138.6898  165.9722 C.3     1  UNL1        0.0328
      8 H         143.0629  139.0091  168.8088 H       1  UNL1        0.2107
      9 C         138.5873  140.5026  170.3173 C.3     1  UNL1        0.0342
     10 C         140.0353  140.5932  169.9364 C.ar    1  UNL1        0.0116
     11 C         140.5049  140.0210  168.6318 C.ar    1  UNL1       -0.0033
     12 C         141.9529  140.1116  168.2509 C.ar    1  UNL1        0.0016
     13 C         142.9313  140.7744  169.1746 C.ar    1  UNL1        0.0010
     14 C         142.4617  141.3467  170.4791 C.ar    1  UNL1        0.0360
     15 C         141.0137  141.2561  170.8600 C.ar    1  UNL1        0.1296
     16 O         140.5442  141.8284  172.1647 O.3     1  UNL1       -0.5058
     17 H         141.1554  142.2425  172.7417 H       1  UNL1        0.2922
     18 N         141.6961  139.9818  162.5273 N.am    1  UNL1       -0.3060
     19 C         142.2703  141.1530  161.7865 C.2     1  UNL1        0.2228
     20 O         143.0864  142.1766  162.5187 O.2     1  UNL1       -0.2751
     21 H         141.1605  139.3099  162.0468 H       1  UNL1        0.1494
     22 C         142.0283  141.3005  160.3136 C.3     1  UNL1        0.0897
     23 C         140.8644  142.1091  159.8220 C.3     1  UNL1        0.0359
     24 C         139.9745  142.8150  160.8017 C.ar    1  UNL1       -0.0217
     25 C         140.3150  144.2021  161.2599 C.ar    1  UNL1       -0.0043
     26 C         139.4252  144.9080  162.2395 C.ar    1  UNL1       -0.0003
     27 C         138.1947  144.2269  162.7610 C.ar    1  UNL1       -0.0000
     28 C         137.8541  142.8397  162.3028 C.ar    1  UNL1       -0.0003
     29 C         138.7440  142.1338  161.3231 C.ar    1  UNL1       -0.0043
@<TRIPOS>BOND
     1     9    10    1
     2    10    11   ar
     3    11    12   ar
     4    12     1    1
     5     1     2    1
     6     1     3    1
     7     3     4    1
     8     4     5    1
     9     5    18    1
    10    18    19   am
    11    19    20    2
    12    19    22    1
    13    22    23    1
    14    23    24    1
    15    24    25   ar
    16    25    26   ar
    17    26    27   ar
    18    27    28   ar
    19    28    29   ar
    20     5     6    1
    21     6     7    1
    22    12    13   ar
    23    13    14   ar
    24    14    15   ar
    25    15    16    1
    26    15    10   ar
    27     7     1    1
    28    29    24   ar
    29     2     8    1
    30    18    21    1
    31    16    17    1
@<TRIPOS>MOLECULE
*****
 29 31 0 0 0
SMALL
GASTEIGER

@<TRIPOS>ATOM
      1 C         142.4106  139.5820  167.1954 C.3     1  UNL1        0.1070
      2 O         143.0031  138.9587  168.4243 O.3     1  UNL1       -0.3827
      3 C         141.5814  140.4882  166.3343 C.3     1  UNL1        0.0328
      4 C         141.6393  140.3635  164.8407 C.3     1  UNL1        0.0223
      5 C         142.5265  139.3327  164.2080 C.3     1  UNL1        0.0717
      6 C         143.3556  138.4265  165.0690 C.3     1  UNL1        0.0223
      7 C         143.2977  138.5512  166.5627 C.3     1  UNL1        0.0328
      8 H         142.6453  139.3956  169.2130 H       1  UNL1        0.2107
      9 C         142.5365  143.4163  170.7000 C.3     1  UNL1        0.0342
     10 C         141.7922  142.3136  170.0072 C.ar    1  UNL1        0.0116
     11 C         142.4735  141.4992  168.9477 C.ar    1  UNL1       -0.0033
     12 C         141.7292  140.3965  168.2549 C.ar    1  UNL1        0.0016
     13 C         140.3036  140.1082  168.6215 C.ar    1  UNL1        0.0010
     14 C         139.6223  140.9226  169.6809 C.ar    1  UNL1        0.0360
     15 C         140.3666  142.0253  170.3738 C.ar    1  UNL1        0.1296
     16 O         139.6852  142.8398  171.4333 O.3     1  UNL1       -0.5058
     17 H         138.7947  142.6597  171.6623 H       1  UNL1        0.2922
     18 N         142.5845  139.2079  162.7143 N.am    1  UNL1       -0.3060
     19 C         141.8573  138.0908  162.0263 C.2     1  UNL1        0.2228
     20 O         141.0723  137.0985  162.8319 O.2     1  UNL1       -0.2751
     21 H         143.0998  139.8592  162.1856 H       1  UNL1        0.1494
     22 C         141.9153  137.9660  160.5326 C.3     1  UNL1        0.0897
     23 C         140.9256  138.7026  159.6794 C.3     1  UNL1        0.0359
     24 C         139.9521  139.6532  160.3109 C.ar    1  UNL1       -0.0217
     25 C         138.6072  139.1622  160.7583 C.ar    1  UNL1       -0.0043
     26 C         137.6337  140.1127  161.3897 C.ar    1  UNL1       -0.0003
     27 C         138.0051  141.5542  161.5739 C.ar    1  UNL1       -0.0000
     28 C         139.3500  142.0453  161.1265 C.ar    1  UNL1       -0.0003
     29 C         140.3235  141.0948  160.4950 C.ar    1  UNL1       -0.0043
@<TRIPOS>BOND
     1     9    10    1
     2    10    11   ar
     3    11    12   ar
     4    12     1    1
     5     1     2    1
     6     1     3    1
     7     3     4    1
     8     4     5    1
     9     5    18    1
    10    18    19   am
    11    19    20    2
    12    19    22    1
    13    22    23    1
    14    23    24    1
    15    24    25   ar
    16    25    26   ar
    17    26    27   ar
    18    27    28   ar
    19    28    29   ar
    20     5     6    1
    21     6     7    1
    22    12    13   ar
    23    13    14   ar
    24    14    15   ar
    25    15    16    1
    26    15    10   ar
    27     7     1    1
    28    29    24   ar
    29     2     8    1
    30    18    21    1
    31    16    17    1
@<TRIPOS>MOLECULE
*****
 29 31 0 0 0
SMALL
GASTEIGER

@<TRIPOS>ATOM
      1 C         142.6721  139.6400  167.6105 C.3     1  UNL1        0.1070
      2 O         142.7421  138.8948  168.9103 O.3     1  UNL1       -0.3827
      3 C         142.3107  140.6970  166.6094 C.3     1  UNL1        0.0328
      4 C         142.8128  140.5977  165.1994 C.3     1  UNL1        0.0223
      5 C         143.6764  139.4414  164.7905 C.3     1  UNL1        0.0717
      6 C         144.0378  138.3844  165.7917 C.3     1  UNL1        0.0223
      7 C         143.5357  138.4837  167.2016 C.3     1  UNL1        0.0328
      8 H         142.2300  139.3698  169.5834 H       1  UNL1        0.2107
      9 C         138.3457  140.4751  170.3646 C.3     1  UNL1        0.0342
     10 C         139.6696  140.9550  169.8478 C.ar    1  UNL1        0.0116
     11 C         140.5089  140.0576  168.9875 C.ar    1  UNL1       -0.0033
     12 C         141.8328  140.5375  168.4708 C.ar    1  UNL1        0.0016
     13 C         142.3173  141.9149  168.8143 C.ar    1  UNL1        0.0010
     14 C         141.4780  142.8123  169.6746 C.ar    1  UNL1        0.0360
     15 C         140.1541  142.3324  170.1913 C.ar    1  UNL1        0.1296
     16 O         139.3148  143.2299  171.0516 O.3     1  UNL1       -0.5058
     17 H         139.6175  144.0903  171.2662 H       1  UNL1        0.2922
     18 N         144.1786  139.3420  163.3806 N.am    1  UNL1       -0.3060
     19 C         143.4579  138.4799  162.3869 C.2     1  UNL1        0.2228
     20 O         142.2352  137.7172  162.8031 O.2     1  UNL1       -0.2751
     21 H         144.9811  139.8426  163.1075 H       1  UNL1        0.1494
     22 C         143.9600  138.3804  160.9769 C.3     1  UNL1        0.0897
     23 C         143.3161  139.1924  159.8924 C.3     1  UNL1        0.0359
     24 C         142.9635  140.6291  160.1402 C.ar    1  UNL1       -0.0217
     25 C         141.5366  141.0799  160.0355 C.ar    1  UNL1       -0.0043
     26 C         141.1839  142.5166  160.2833 C.ar    1  UNL1       -0.0003
     27 C         142.2581  143.5026  160.6357 C.ar    1  UNL1       -0.0000
     28 C         143.6849  143.0518  160.7403 C.ar    1  UNL1       -0.0003
     29 C         144.0376  141.6151  160.4926 C.ar    1  UNL1       -0.0043
@<TRIPOS>BOND
     1     9    10    1
     2    10    11   ar
     3    11    12   ar
     4    12     1    1
     5     1     2    1
     6     1     3    1
     7     3     4    1
     8     4     5    1
     9     5    18    1
    10    18    19   am
    11    19    20    2
    12    19    22    1
    13    22    23    1
    14    23    24    1
    15    24    25   ar
    16    25    26   ar
    17    26    27   ar
    18    27    28   ar
    19    28    29   ar
    20     5     6    1
    21     6     7    1
    22    12    13   ar
    23    13    14   ar
    24    14    15   ar
    25    15    16    1
    26    15    10   ar
    27     7     1    1
    28    29    24   ar
    29     2     8    1
    30    18    21    1
    31    16    17    1
@<TRIPOS>MOLECULE
*****
 29 31 0 0 0
SMALL
GASTEIGER

@<TRIPOS>ATOM
      1 C         143.2994  143.3213  165.0551 C.3     1  UNL1        0.1070
      2 O         144.6177  143.4292  165.7624 O.3     1  UNL1       -0.3827
      3 C         141.9309  142.8259  164.6922 C.3     1  UNL1        0.0328
      4 C         141.1647  143.4839  163.5832 C.3     1  UNL1        0.0223
      5 C         141.7669  144.6373  162.8370 C.3     1  UNL1        0.0717
      6 C         143.1355  145.1328  163.1999 C.3     1  UNL1        0.0223
      7 C         143.9017  144.4748  164.3089 C.3     1  UNL1        0.0328
      8 H         144.6707  142.7499  166.4528 H       1  UNL1        0.2107
      9 C         143.0631  141.6799  169.9795 C.3     1  UNL1        0.0342
     10 C         143.0368  141.3846  168.5091 C.ar    1  UNL1        0.0116
     11 C         143.1812  142.5005  167.5173 C.ar    1  UNL1       -0.0033
     12 C         143.1549  142.2053  166.0469 C.ar    1  UNL1        0.0016
     13 C         142.9842  140.7940  165.5683 C.ar    1  UNL1        0.0010
     14 C         142.8397  139.6780  166.5600 C.ar    1  UNL1        0.0360
     15 C         142.8660  139.9733  168.0305 C.ar    1  UNL1        0.1296
     16 O         142.7215  138.8573  169.0223 O.3     1  UNL1       -0.5058
     17 H         142.6149  137.9757  168.7233 H       1  UNL1        0.2922
     18 N         141.0008  145.2954  161.7280 N.am    1  UNL1       -0.3060
     19 C         141.3362  144.9868  160.2989 C.2     1  UNL1        0.2228
     20 O         142.4377  144.0202  159.9789 O.2     1  UNL1       -0.2751
     21 H         140.2779  145.9298  161.9381 H       1  UNL1        0.1494
     22 C         140.5701  145.6448  159.1898 C.3     1  UNL1        0.0897
     23 C         140.7430  145.1734  157.7763 C.3     1  UNL1        0.0359
     24 C         140.3729  146.0736  156.6350 C.ar    1  UNL1       -0.0217
     25 C         141.0420  145.9090  155.3026 C.ar    1  UNL1       -0.0043
     26 C         140.6719  146.8092  154.1612 C.ar    1  UNL1       -0.0003
     27 C         139.6327  147.8739  154.3522 C.ar    1  UNL1       -0.0000
     28 C         138.9636  148.0385  155.6846 C.ar    1  UNL1       -0.0003
     29 C         139.3337  147.1383  156.8260 C.ar    1  UNL1       -0.0043
@<TRIPOS>BOND
     1     9    10    1
     2    10    11   ar
     3    11    12   ar
     4    12     1    1
     5     1     2    1
     6     1     3    1
     7     3     4    1
     8     4     5    1
     9     5    18    1
    10    18    19   am
    11    19    20    2
    12    19    22    1
    13    22    23    1
    14    23    24    1
    15    24    25   ar
    16    25    26   ar
    17    26    27   ar
    18    27    28   ar
    19    28    29   ar
    20     5     6    1
    21     6     7    1
    22    12    13   ar
    23    13    14   ar
    24    14    15   ar
    25    15    16    1
    26    15    10   ar
    27     7     1    1
    28    29    24   ar
    29     2     8    1
    30    18    21    1
    31    16    17    1
