@<TRIPOS>MOLECULE
*****
 30 32 0 0 0
SMALL
GASTEIGER

@<TRIPOS>ATOM
      1 N         138.4021  143.3278  162.7457 N.ar    1  UNL1       -0.2936
      2 C         137.7931  142.3396  163.6959 C.ar    1  UNL1        0.0814
      3 C         137.4856  140.9461  163.2337 C.ar    1  UNL1        0.0558
      4 C         137.7873  140.5407  161.8213 C.ar    1  UNL1        0.1453
      5 C         138.3963  141.5288  160.8712 C.ar    1  UNL1        0.0976
      6 C         138.7037  142.9223  161.3334 C.ar    1  UNL1        0.2641
      7 O         139.3127  143.9104  160.3833 O.2     1  UNL1       -0.2669
      8 C         138.7096  144.7213  163.2079 C.3     1  UNL1        0.1138
      9 C         139.6730  144.9418  164.3362 C.3     1  UNL1        0.0509
     10 C         143.8119  143.1867  164.1363 C.ar    1  UNL1       -0.0064
     11 C         143.5315  144.5201  163.5090 C.ar    1  UNL1       -0.0032
     12 C         142.1519  145.1051  163.5756 C.ar    1  UNL1       -0.0045
     13 C         141.0526  144.3568  164.2695 C.ar    1  UNL1       -0.0203
     14 C         141.3330  143.0234  164.8969 C.ar    1  UNL1       -0.0045
     15 C         142.7126  142.4384  164.8303 C.ar    1  UNL1       -0.0032
     16 C         145.1915  142.6017  164.0697 C.3     1  UNL1        0.0956
     17 N         145.6550  141.9143  162.8197 N.3     1  UNL1       -0.2937
     18 H         145.9261  142.6470  162.1639 H       1  UNL1        0.1236
     19 C         144.7282  140.9941  162.0820 C.3     1  UNL1        0.0688
     20 C         142.3985  141.6351  161.1270 C.3     1  UNL1        0.0015
     21 C         143.8848  141.5213  160.9591 C.3     1  UNL1        0.0171
     22 O         137.4798  139.1472  161.3591 O.3     1  UNL1       -0.4704
     23 C         138.5800  138.1335  161.2497 C.3     1  UNL1        0.2320
     24 C         139.6124  138.0274  162.3327 C.ar    1  UNL1        0.0213
     25 C         139.1971  137.6929  163.7347 C.ar    1  UNL1        0.0016
     26 C         140.2295  137.5868  164.8176 C.ar    1  UNL1        0.0294
     27 C         141.6773  137.8151  164.4986 C.ar    1  UNL1        0.1401
     28 F         142.7097  137.7090  165.5816 F       1  UNL1       -0.2042
     29 C         142.0927  138.1496  163.0966 C.ar    1  UNL1        0.0294
     30 C         141.0603  138.2557  162.0136 C.ar    1  UNL1        0.0016
@<TRIPOS>BOND
     1    20    21    1
     2    21    19    1
     3    19    17    1
     4    17    16    1
     5    16    10    1
     6    10    11   ar
     7    11    12   ar
     8    12    13   ar
     9    13     9    1
    10     9     8    1
    11     8     1    1
    12     1     2   ar
    13     2     3   ar
    14     3     4   ar
    15     4    22    1
    16    22    23    1
    17    23    24    1
    18    24    25   ar
    19    25    26   ar
    20    26    27   ar
    21    27    28    1
    22    27    29   ar
    23    29    30   ar
    24     4     5   ar
    25     5     6   ar
    26     6     7    2
    27    13    14   ar
    28    14    15   ar
    29    15    10   ar
    30     6     1   ar
    31    30    24   ar
    32    17    18    1
@<TRIPOS>MOLECULE
*****
 30 32 0 0 0
SMALL
GASTEIGER

@<TRIPOS>ATOM
      1 N         140.6944  144.6530  162.9392 N.ar    1  UNL1       -0.2936
      2 C         141.8671  145.1057  163.7577 C.ar    1  UNL1        0.0814
      3 C         143.2446  144.6080  163.4338 C.ar    1  UNL1        0.0558
      4 C         143.4494  143.6577  162.2915 C.ar    1  UNL1        0.1453
      5 C         142.2767  143.2050  161.4731 C.ar    1  UNL1        0.0976
      6 C         140.8992  143.7026  161.7969 C.ar    1  UNL1        0.2641
      7 O         139.7265  143.2500  160.9785 O.2     1  UNL1       -0.2669
      8 C         139.3170  145.1506  163.2631 C.3     1  UNL1        0.1138
      9 C         138.5014  144.4663  164.3198 C.3     1  UNL1        0.0509
     10 C         138.6935  139.9925  164.7646 C.ar    1  UNL1       -0.0064
     11 C         139.5874  140.8675  165.5923 C.ar    1  UNL1       -0.0032
     12 C         139.5234  142.3588  165.4440 C.ar    1  UNL1       -0.0045
     13 C         138.5655  142.9750  164.4680 C.ar    1  UNL1       -0.0203
     14 C         137.6715  142.1000  163.6403 C.ar    1  UNL1       -0.0045
     15 C         137.7355  140.6087  163.7886 C.ar    1  UNL1       -0.0032
     16 C         138.7575  138.5012  164.9128 C.3     1  UNL1        0.0956
     17 N         138.7770  137.6265  163.6944 N.3     1  UNL1       -0.2937
     18 H         138.6650  136.6662  164.0195 H       1  UNL1        0.1236
     19 C         139.9671  137.6385  162.7815 C.3     1  UNL1        0.0688
     20 C         140.5096  139.8240  161.4856 C.3     1  UNL1        0.0015
     21 C         139.9320  138.4400  161.5140 C.3     1  UNL1        0.0171
     22 O         144.8269  143.1600  161.9676 O.3     1  UNL1       -0.4704
     23 C         145.4622  142.1026  162.8211 C.3     1  UNL1        0.2320
     24 C         144.6150  141.0346  163.4468 C.ar    1  UNL1        0.0213
     25 C         144.3000  139.7831  162.6823 C.ar    1  UNL1        0.0016
     26 C         143.4528  138.7151  163.3080 C.ar    1  UNL1        0.0294
     27 C         142.9204  138.8986  164.6983 C.ar    1  UNL1        0.1401
     28 F         142.0732  137.8306  165.3240 F       1  UNL1       -0.2042
     29 C         143.2353  140.1502  165.4629 C.ar    1  UNL1        0.0294
     30 C         144.0826  141.2182  164.8371 C.ar    1  UNL1        0.0016
@<TRIPOS>BOND
     1    20    21    1
     2    21    19    1
     3    19    17    1
     4    17    16    1
     5    16    10    1
     6    10    11   ar
     7    11    12   ar
     8    12    13   ar
     9    13     9    1
    10     9     8    1
    11     8     1    1
    12     1     2   ar
    13     2     3   ar
    14     3     4   ar
    15     4    22    1
    16    22    23    1
    17    23    24    1
    18    24    25   ar
    19    25    26   ar
    20    26    27   ar
    21    27    28    1
    22    27    29   ar
    23    29    30   ar
    24     4     5   ar
    25     5     6   ar
    26     6     7    2
    27    13    14   ar
    28    14    15   ar
    29    15    10   ar
    30     6     1   ar
    31    30    24   ar
    32    17    18    1
@<TRIPOS>MOLECULE
*****
 30 32 0 0 0
SMALL
GASTEIGER

@<TRIPOS>ATOM
      1 N         144.0688  140.4581  162.9918 N.ar    1  UNL1       -0.2936
      2 C         143.3696  140.7092  161.6887 C.ar    1  UNL1        0.0814
      3 C         142.2822  139.7831  161.2304 C.ar    1  UNL1        0.0558
      4 C         141.8941  138.6059  162.0753 C.ar    1  UNL1        0.1453
      5 C         142.5933  138.3549  163.3784 C.ar    1  UNL1        0.0976
      6 C         143.6807  139.2810  163.8366 C.ar    1  UNL1        0.2641
      7 O         144.3799  139.0300  165.1397 O.2     1  UNL1       -0.2669
      8 C         145.1562  141.3842  163.4501 C.3     1  UNL1        0.1138
      9 C         144.8426  142.4907  164.4131 C.3     1  UNL1        0.0509
     10 C         140.6781  144.1835  164.6166 C.ar    1  UNL1       -0.0064
     11 C         141.0144  142.9273  165.3640 C.ar    1  UNL1       -0.0032
     12 C         142.4025  142.3630  165.2962 C.ar    1  UNL1       -0.0045
     13 C         143.4544  143.0550  164.4809 C.ar    1  UNL1       -0.0203
     14 C         143.1181  144.3112  163.7335 C.ar    1  UNL1       -0.0045
     15 C         141.7300  144.8755  163.8013 C.ar    1  UNL1       -0.0032
     16 C         139.2899  144.7478  164.6845 C.3     1  UNL1        0.0956
     17 N         138.3816  144.6500  163.4948 N.3     1  UNL1       -0.2937
     18 H         137.5648  145.2255  163.6999 H       1  UNL1        0.1236
     19 C         137.8683  143.3122  163.0511 C.3     1  UNL1        0.0688
     20 C         139.7241  142.4591  161.4454 C.3     1  UNL1        0.0015
     21 C         138.2796  142.7548  161.7205 C.3     1  UNL1        0.0171
     22 O         140.8067  137.6798  161.6171 O.3     1  UNL1       -0.4704
     23 C         139.3748  137.9844  161.9442 C.3     1  UNL1        0.2320
     24 C         138.9752  138.2788  163.3597 C.ar    1  UNL1        0.0213
     25 C         138.9498  137.1765  164.3766 C.ar    1  UNL1        0.0016
     26 C         138.5502  137.4709  165.7921 C.ar    1  UNL1        0.0294
     27 C         138.1760  138.8677  166.1907 C.ar    1  UNL1        0.1401
     28 F         137.7764  139.1621  167.6062 F       1  UNL1       -0.2042
     29 C         138.2014  139.9701  165.1738 C.ar    1  UNL1        0.0294
     30 C         138.6010  139.6757  163.7583 C.ar    1  UNL1        0.0016
@<TRIPOS>BOND
     1    20    21    1
     2    21    19    1
     3    19    17    1
     4    17    16    1
     5    16    10    1
     6    10    11   ar
     7    11    12   ar
     8    12    13   ar
     9    13     9    1
    10     9     8    1
    11     8     1    1
    12     1     2   ar
    13     2     3   ar
    14     3     4   ar
    15     4    22    1
    16    22    23    1
    17    23    24    1
    18    24    25   ar
    19    25    26   ar
    20    26    27   ar
    21    27    28    1
    22    27    29   ar
    23    29    30   ar
    24     4     5   ar
    25     5     6   ar
    26     6     7    2
    27    13    14   ar
    28    14    15   ar
    29    15    10   ar
    30     6     1   ar
    31    30    24   ar
    32    17    18    1
@<TRIPOS>MOLECULE
*****
 30 32 0 0 0
SMALL
GASTEIGER

@<TRIPOS>ATOM
      1 N         144.3699  142.8546  163.1338 N.ar    1  UNL1       -0.2936
      2 C         143.5726  142.7467  161.8678 C.ar    1  UNL1        0.0814
      3 C         142.3336  143.5731  161.6891 C.ar    1  UNL1        0.0558
      4 C         141.8919  144.5074  162.7764 C.ar    1  UNL1        0.1453
      5 C         142.6892  144.6152  164.0423 C.ar    1  UNL1        0.0976
      6 C         143.9282  143.7888  164.2210 C.ar    1  UNL1        0.2641
      7 O         144.7255  143.8966  165.4869 O.2     1  UNL1       -0.2669
      8 C         145.6089  142.0282  163.3125 C.3     1  UNL1        0.1138
      9 C         145.5358  140.7119  164.0281 C.3     1  UNL1        0.0509
     10 C         141.7665  138.2603  163.8496 C.ar    1  UNL1       -0.0064
     11 C         142.7733  138.1696  162.7415 C.ar    1  UNL1       -0.0032
     12 C         144.0298  138.9868  162.8010 C.ar    1  UNL1       -0.0045
     13 C         144.2794  139.8947  163.9686 C.ar    1  UNL1       -0.0203
     14 C         143.2725  139.9854  165.0767 C.ar    1  UNL1       -0.0045
     15 C         142.0161  139.1681  165.0173 C.ar    1  UNL1       -0.0032
     16 C         140.5101  137.4430  163.7902 C.3     1  UNL1        0.0956
     17 N         139.7763  137.2891  162.4910 N.3     1  UNL1       -0.2937
     18 H         140.4815  137.1291  161.7717 H       1  UNL1        0.1236
     19 C         138.8929  138.3944  161.9930 C.3     1  UNL1        0.0688
     20 C         140.2820  140.5000  161.3708 C.3     1  UNL1        0.0015
     21 C         139.4037  139.3553  160.9606 C.3     1  UNL1        0.0171
     22 O         140.6529  145.3338  162.5977 O.3     1  UNL1       -0.4704
     23 C         139.4731  145.1212  163.4993 C.3     1  UNL1        0.2320
     24 C         139.0590  143.7299  163.8772 C.ar    1  UNL1        0.0213
     25 C         138.0020  143.0205  163.0839 C.ar    1  UNL1        0.0016
     26 C         137.5879  141.6292  163.4617 C.ar    1  UNL1        0.0294
     27 C         138.2308  140.9473  164.6329 C.ar    1  UNL1        0.1401
     28 F         137.8167  139.5559  165.0107 F       1  UNL1       -0.2042
     29 C         139.2879  141.6567  165.4262 C.ar    1  UNL1        0.0294
     30 C         139.7020  143.0480  165.0484 C.ar    1  UNL1        0.0016
@<TRIPOS>BOND
     1    20    21    1
     2    21    19    1
     3    19    17    1
     4    17    16    1
     5    16    10    1
     6    10    11   ar
     7    11    12   ar
     8    12    13   ar
     9    13     9    1
    10     9     8    1
    11     8     1    1
    12     1     2   ar
    13     2     3   ar
    14     3     4   ar
    15     4    22    1
    16    22    23    1
    17    23    24    1
    18    24    25   ar
    19    25    26   ar
    20    26    27   ar
    21    27    28    1
    22    27    29   ar
    23    29    30   ar
    24     4     5   ar
    25     5     6   ar
    26     6     7    2
    27    13    14   ar
    28    14    15   ar
    29    15    10   ar
    30     6     1   ar
    31    30    24   ar
    32    17    18    1
@<TRIPOS>MOLECULE
*****
 30 32 0 0 0
SMALL
GASTEIGER

@<TRIPOS>ATOM
      1 N         139.3907  138.6016  163.3899 N.ar    1  UNL1       -0.2936
      2 C         138.6689  139.2935  164.5081 C.ar    1  UNL1        0.0814
      3 C         137.9598  140.5906  164.2537 C.ar    1  UNL1        0.0558
      4 C         137.9725  141.1958  162.8812 C.ar    1  UNL1        0.1453
      5 C         138.6944  140.5038  161.7631 C.ar    1  UNL1        0.0976
      6 C         139.4035  139.2067  162.0175 C.ar    1  UNL1        0.2641
      7 O         140.1253  138.5148  160.8994 O.2     1  UNL1       -0.2669
      8 C         140.0998  137.3045  163.6442 C.3     1  UNL1        0.1138
      9 C         141.4173  137.2980  164.3613 C.3     1  UNL1        0.0509
     10 C         144.4627  140.4974  163.5015 C.ar    1  UNL1       -0.0064
     11 C         143.6905  140.5231  164.7872 C.ar    1  UNL1       -0.0032
     12 C         142.6754  139.4566  165.0738 C.ar    1  UNL1       -0.0045
     13 C         142.4324  138.3645  164.0747 C.ar    1  UNL1       -0.0203
     14 C         143.2046  138.3388  162.7890 C.ar    1  UNL1       -0.0045
     15 C         144.2198  139.4053  162.5024 C.ar    1  UNL1       -0.0032
     16 C         145.4778  141.5639  163.2149 C.3     1  UNL1        0.0956
     17 N         145.0680  142.8162  162.4981 N.3     1  UNL1       -0.2937
     18 H         144.3367  143.2514  163.0604 H       1  UNL1        0.1236
     19 C         144.5469  142.7402  161.0936 C.3     1  UNL1        0.0688
     20 C         142.0368  142.1200  161.3485 C.3     1  UNL1        0.0015
     21 C         143.1021  143.0301  160.8130 C.3     1  UNL1        0.0171
     22 O         137.2634  142.4929  162.6269 O.3     1  UNL1       -0.4704
     23 C         137.6367  143.7175  163.4086 C.3     1  UNL1        0.2320
     24 C         139.0699  144.1543  163.4790 C.ar    1  UNL1        0.0213
     25 C         139.9867  143.5562  164.5046 C.ar    1  UNL1        0.0016
     26 C         141.4200  143.9930  164.5750 C.ar    1  UNL1        0.0294
     27 C         141.9365  145.0279  163.6200 C.ar    1  UNL1        0.1401
     28 F         143.3697  145.4647  163.6904 F       1  UNL1       -0.2042
     29 C         141.0197  145.6261  162.5944 C.ar    1  UNL1        0.0294
     30 C         139.5864  145.1893  162.5239 C.ar    1  UNL1        0.0016
@<TRIPOS>BOND
     1    20    21    1
     2    21    19    1
     3    19    17    1
     4    17    16    1
     5    16    10    1
     6    10    11   ar
     7    11    12   ar
     8    12    13   ar
     9    13     9    1
    10     9     8    1
    11     8     1    1
    12     1     2   ar
    13     2     3   ar
    14     3     4   ar
    15     4    22    1
    16    22    23    1
    17    23    24    1
    18    24    25   ar
    19    25    26   ar
    20    26    27   ar
    21    27    28    1
    22    27    29   ar
    23    29    30   ar
    24     4     5   ar
    25     5     6   ar
    26     6     7    2
    27    13    14   ar
    28    14    15   ar
    29    15    10   ar
    30     6     1   ar
    31    30    24   ar
    32    17    18    1
@<TRIPOS>MOLECULE
*****
 30 32 0 0 0
SMALL
GASTEIGER

@<TRIPOS>ATOM
      1 N         144.2643  140.0289  163.8025 N.ar    1  UNL1       -0.2936
      2 C         143.7484  139.7531  165.1838 C.ar    1  UNL1        0.0814
      3 C         142.7203  138.6826  165.4006 C.ar    1  UNL1        0.0558
      4 C         142.2081  137.8878  164.2361 C.ar    1  UNL1        0.1453
      5 C         142.7240  138.1635  162.8549 C.ar    1  UNL1        0.0976
      6 C         143.7521  139.2341  162.6381 C.ar    1  UNL1        0.2641
      7 O         144.2680  139.5099  161.2569 O.2     1  UNL1       -0.2669
      8 C         145.2923  141.0994  163.5857 C.3     1  UNL1        0.1138
      9 C         145.0184  142.5042  164.0346 C.3     1  UNL1        0.0509
     10 C         141.6373  144.8352  162.1948 C.ar    1  UNL1       -0.0064
     11 C         142.2138  145.2630  163.5118 C.ar    1  UNL1       -0.0032
     12 C         143.3408  144.4860  164.1251 C.ar    1  UNL1       -0.0045
     13 C         143.8914  143.2812  163.4213 C.ar    1  UNL1       -0.0203
     14 C         143.3149  142.8534  162.1043 C.ar    1  UNL1       -0.0045
     15 C         142.1879  143.6304  161.4910 C.ar    1  UNL1       -0.0032
     16 C         140.5103  145.6122  161.5815 C.3     1  UNL1        0.0956
     17 N         139.1625  145.6246  162.2397 N.3     1  UNL1       -0.2937
     18 H         139.1156  146.4766  162.7985 H       1  UNL1        0.1236
     19 C         138.7562  144.4944  163.1384 C.3     1  UNL1        0.0688
     20 C         139.4985  143.8855  165.5526 C.3     1  UNL1        0.0015
     21 C         138.6625  144.7107  164.6198 C.3     1  UNL1        0.0171
     22 O         141.1801  136.8172  164.4528 O.3     1  UNL1       -0.4704
     23 C         139.8165  137.1790  164.9627 C.3     1  UNL1        0.2320
     24 C         139.1001  138.3735  164.4057 C.ar    1  UNL1        0.0213
     25 C         138.7856  139.5408  165.2936 C.ar    1  UNL1        0.0016
     26 C         138.0693  140.7352  164.7367 C.ar    1  UNL1        0.0294
     27 C         137.6674  140.7623  163.2918 C.ar    1  UNL1        0.1401
     28 F         136.9511  141.9567  162.7348 F       1  UNL1       -0.2042
     29 C         137.9819  139.5949  162.4038 C.ar    1  UNL1        0.0294
     30 C         138.6983  138.4005  162.9608 C.ar    1  UNL1        0.0016
@<TRIPOS>BOND
     1    20    21    1
     2    21    19    1
     3    19    17    1
     4    17    16    1
     5    16    10    1
     6    10    11   ar
     7    11    12   ar
     8    12    13   ar
     9    13     9    1
    10     9     8    1
    11     8     1    1
    12     1     2   ar
    13     2     3   ar
    14     3     4   ar
    15     4    22    1
    16    22    23    1
    17    23    24    1
    18    24    25   ar
    19    25    26   ar
    20    26    27   ar
    21    27    28    1
    22    27    29   ar
    23    29    30   ar
    24     4     5   ar
    25     5     6   ar
    26     6     7    2
    27    13    14   ar
    28    14    15   ar
    29    15    10   ar
    30     6     1   ar
    31    30    24   ar
    32    17    18    1
@<TRIPOS>MOLECULE
*****
 30 32 0 0 0
SMALL
GASTEIGER

@<TRIPOS>ATOM
      1 N         139.7050  137.8470  163.8062 N.ar    1  UNL1       -0.2936
      2 C         141.1662  137.6931  164.1087 C.ar    1  UNL1        0.0814
      3 C         142.1772  137.8181  163.0076 C.ar    1  UNL1        0.0558
      4 C         141.7270  138.0970  161.6042 C.ar    1  UNL1        0.1453
      5 C         140.2659  138.2509  161.3018 C.ar    1  UNL1        0.0976
      6 C         139.2549  138.1259  162.4029 C.ar    1  UNL1        0.2641
      7 O         137.7938  138.2797  162.1005 O.2     1  UNL1       -0.2669
      8 C         138.6941  137.7219  164.9073 C.3     1  UNL1        0.1138
      9 C         138.6645  138.7312  166.0165 C.3     1  UNL1        0.0509
     10 C         139.0062  143.1186  165.0762 C.ar    1  UNL1       -0.0064
     11 C         139.9163  142.4965  166.0934 C.ar    1  UNL1       -0.0032
     12 C         139.8024  141.0340  166.4068 C.ar    1  UNL1       -0.0045
     13 C         138.7784  140.1937  165.7031 C.ar    1  UNL1       -0.0203
     14 C         137.8683  140.8158  164.6859 C.ar    1  UNL1       -0.0045
     15 C         137.9822  142.2783  164.3725 C.ar    1  UNL1       -0.0032
     16 C         139.1201  144.5811  164.7628 C.3     1  UNL1        0.0956
     17 N         140.3614  145.1139  164.1107 N.3     1  UNL1       -0.2937
     18 H         140.0590  145.7958  163.4151 H       1  UNL1        0.1236
     19 C         141.3054  144.1771  163.4170 C.3     1  UNL1        0.0688
     20 C         140.9428  141.8683  162.2820 C.3     1  UNL1        0.0015
     21 C         140.8317  143.3638  162.2489 C.3     1  UNL1        0.0171
     22 O         142.7380  138.2221  160.5031 O.3     1  UNL1       -0.4704
     23 C         144.0992  138.7807  160.7947 C.3     1  UNL1        0.2320
     24 C         144.2489  140.2160  161.2042 C.ar    1  UNL1        0.0213
     25 C         144.6689  140.5569  162.6032 C.ar    1  UNL1        0.0016
     26 C         144.8186  141.9921  163.0127 C.ar    1  UNL1        0.0294
     27 C         144.5483  143.0865  162.0232 C.ar    1  UNL1        0.1401
     28 F         144.6980  144.5217  162.4326 F       1  UNL1       -0.2042
     29 C         144.1283  142.7456  160.6240 C.ar    1  UNL1        0.0294
     30 C         143.9786  141.3104  160.2145 C.ar    1  UNL1        0.0016
@<TRIPOS>BOND
     1    20    21    1
     2    21    19    1
     3    19    17    1
     4    17    16    1
     5    16    10    1
     6    10    11   ar
     7    11    12   ar
     8    12    13   ar
     9    13     9    1
    10     9     8    1
    11     8     1    1
    12     1     2   ar
    13     2     3   ar
    14     3     4   ar
    15     4    22    1
    16    22    23    1
    17    23    24    1
    18    24    25   ar
    19    25    26   ar
    20    26    27   ar
    21    27    28    1
    22    27    29   ar
    23    29    30   ar
    24     4     5   ar
    25     5     6   ar
    26     6     7    2
    27    13    14   ar
    28    14    15   ar
    29    15    10   ar
    30     6     1   ar
    31    30    24   ar
    32    17    18    1
@<TRIPOS>MOLECULE
*****
 30 32 0 0 0
SMALL
GASTEIGER

@<TRIPOS>ATOM
      1 N         144.3917  142.9047  162.9688 N.ar    1  UNL1       -0.2936
      2 C         143.9481  143.5919  164.2262 C.ar    1  UNL1        0.0814
      3 C         142.8188  144.5783  164.1834 C.ar    1  UNL1        0.0558
      4 C         142.1332  144.8775  162.8832 C.ar    1  UNL1        0.1453
      5 C         142.5768  144.1903  161.6259 C.ar    1  UNL1        0.0976
      6 C         143.7060  143.2039  161.6687 C.ar    1  UNL1        0.2641
      7 O         144.1496  142.5167  160.4114 O.2     1  UNL1       -0.2669
      8 C         145.5209  141.9183  163.0116 C.3     1  UNL1        0.1138
      9 C         145.5082  140.8070  164.0189 C.3     1  UNL1        0.0509
     10 C         141.9680  138.0407  164.2730 C.ar    1  UNL1       -0.0064
     11 C         142.4554  138.7498  165.5016 C.ar    1  UNL1       -0.0032
     12 C         143.6355  139.6719  165.4169 C.ar    1  UNL1       -0.0045
     13 C         144.3281  139.8849  164.1036 C.ar    1  UNL1       -0.0203
     14 C         143.8407  139.1758  162.8750 C.ar    1  UNL1       -0.0045
     15 C         142.6606  138.2537  162.9597 C.ar    1  UNL1       -0.0032
     16 C         140.7879  137.1186  164.3577 C.3     1  UNL1        0.0956
     17 N         139.3971  137.6800  164.3732 N.3     1  UNL1       -0.2937
     18 H         139.4797  138.6770  164.1744 H       1  UNL1        0.1236
     19 C         138.5505  137.5527  165.6049 C.3     1  UNL1        0.0688
     20 C         139.0917  139.9021  166.5732 C.3     1  UNL1        0.0015
     21 C         138.1197  138.7818  166.3492 C.3     1  UNL1        0.0171
     22 O         141.0039  145.8639  162.8404 O.3     1  UNL1       -0.4704
     23 C         139.6967  145.4807  162.2123 C.3     1  UNL1        0.2320
     24 C         139.0646  144.1609  162.5420 C.ar    1  UNL1        0.0213
     25 C         139.0097  143.0763  161.5073 C.ar    1  UNL1        0.0016
     26 C         138.3776  141.7566  161.8370 C.ar    1  UNL1        0.0294
     27 C         137.8004  141.5214  163.2013 C.ar    1  UNL1        0.1401
     28 F         137.1682  140.2017  163.5309 F       1  UNL1       -0.2042
     29 C         137.8552  142.6061  164.2360 C.ar    1  UNL1        0.0294
     30 C         138.4873  143.9258  163.9064 C.ar    1  UNL1        0.0016
@<TRIPOS>BOND
     1    20    21    1
     2    21    19    1
     3    19    17    1
     4    17    16    1
     5    16    10    1
     6    10    11   ar
     7    11    12   ar
     8    12    13   ar
     9    13     9    1
    10     9     8    1
    11     8     1    1
    12     1     2   ar
    13     2     3   ar
    14     3     4   ar
    15     4    22    1
    16    22    23    1
    17    23    24    1
    18    24    25   ar
    19    25    26   ar
    20    26    27   ar
    21    27    28    1
    22    27    29   ar
    23    29    30   ar
    24     4     5   ar
    25     5     6   ar
    26     6     7    2
    27    13    14   ar
    28    14    15   ar
    29    15    10   ar
    30     6     1   ar
    31    30    24   ar
    32    17    18    1
@<TRIPOS>MOLECULE
*****
 30 32 0 0 0
SMALL
GASTEIGER

@<TRIPOS>ATOM
      1 N         140.7051  144.6313  162.6142 N.ar    1  UNL1       -0.2936
      2 C         141.8961  145.1711  163.3492 C.ar    1  UNL1        0.0814
      3 C         143.2584  144.5980  163.0932 C.ar    1  UNL1        0.0558
      4 C         143.4297  143.4850  162.1022 C.ar    1  UNL1        0.1453
      5 C         142.2388  142.9452  161.3673 C.ar    1  UNL1        0.0976
      6 C         140.8764  143.5184  161.6233 C.ar    1  UNL1        0.2641
      7 O         139.6854  142.9786  160.8884 O.2     1  UNL1       -0.2669
      8 C         139.3427  145.2044  162.8703 C.3     1  UNL1        0.1138
      9 C         138.3326  144.4173  163.6512 C.3     1  UNL1        0.0509
     10 C         139.6815  141.0904  166.3646 C.ar    1  UNL1       -0.0064
     11 C         140.2147  142.4790  166.5582 C.ar    1  UNL1       -0.0032
     12 C         139.7651  143.5879  165.6537 C.ar    1  UNL1       -0.0045
     13 C         138.7822  143.3083  164.5557 C.ar    1  UNL1       -0.0203
     14 C         138.2490  141.9198  164.3621 C.ar    1  UNL1       -0.0045
     15 C         138.6986  140.8108  165.2665 C.ar    1  UNL1       -0.0032
     16 C         140.1311  139.9815  167.2690 C.3     1  UNL1        0.0956
     17 N         139.5187  139.8284  168.6297 N.3     1  UNL1       -0.2937
     18 H         138.5493  140.1362  168.5526 H       1  UNL1        0.1236
     19 C         140.1102  140.5504  169.8039 C.3     1  UNL1        0.0688
     20 C         140.3509  143.1222  170.0835 C.3     1  UNL1        0.0015
     21 C         139.5413  141.8689  170.2378 C.3     1  UNL1        0.0171
     22 O         144.7921  142.9118  161.8462 O.3     1  UNL1       -0.4704
     23 C         145.3850  141.9276  162.8105 C.3     1  UNL1        0.2320
     24 C         144.5354  140.8300  163.3792 C.ar    1  UNL1        0.0213
     25 C         144.1486  139.6608  162.5230 C.ar    1  UNL1        0.0016
     26 C         143.2990  138.5632  163.0917 C.ar    1  UNL1        0.0294
     27 C         142.8363  138.6348  164.5167 C.ar    1  UNL1        0.1401
     28 F         141.9867  137.5372  165.0855 F       1  UNL1       -0.2042
     29 C         143.2231  139.8041  165.3731 C.ar    1  UNL1        0.0294
     30 C         144.0727  140.9017  164.8043 C.ar    1  UNL1        0.0016
@<TRIPOS>BOND
     1    20    21    1
     2    21    19    1
     3    19    17    1
     4    17    16    1
     5    16    10    1
     6    10    11   ar
     7    11    12   ar
     8    12    13   ar
     9    13     9    1
    10     9     8    1
    11     8     1    1
    12     1     2   ar
    13     2     3   ar
    14     3     4   ar
    15     4    22    1
    16    22    23    1
    17    23    24    1
    18    24    25   ar
    19    25    26   ar
    20    26    27   ar
    21    27    28    1
    22    27    29   ar
    23    29    30   ar
    24     4     5   ar
    25     5     6   ar
    26     6     7    2
    27    13    14   ar
    28    14    15   ar
    29    15    10   ar
    30     6     1   ar
    31    30    24   ar
    32    17    18    1
