@<TRIPOS>MOLECULE
*****
 36 40 0 0 0
SMALL
GASTEIGER

@<TRIPOS>ATOM
      1 C         141.8388  137.4868  163.8995 C.3     1  UNL1        0.0768
      2 N         142.8567  138.4515  163.3673 N.3     1  UNL1       -0.2724
      3 C         143.1624  138.7016  161.9202 C.3     1  UNL1        0.0721
      4 C         144.2422  139.7401  161.8473 C.3     1  UNL1        0.0187
      5 C         144.6040  140.1319  163.2493 C.3     1  UNL1        0.0178
      6 C         143.7477  139.3355  164.1887 C.3     1  UNL1        0.0721
      7 C         145.6401  141.1426  163.6428 C.3     1  UNL1        0.0077
      8 C         145.2421  142.3592  164.4247 C.3     1  UNL1        0.0459
      9 C         143.9347  143.0380  164.1419 C.ar    1  UNL1        0.0603
     10 C         143.7987  143.9360  162.9482 C.ar    1  UNL1        0.0145
     11 C         142.4913  144.6148  162.6654 C.ar    1  UNL1       -0.0003
     12 C         141.3199  144.3955  163.5763 C.ar    1  UNL1        0.0092
     13 C         141.4559  143.4975  164.7700 C.ar    1  UNL1        0.1240
     14 N         142.7633  142.8187  165.0528 N.ar    1  UNL1       -0.2356
     15 N         140.2845  143.2782  165.6809 N.pl3   1  UNL1       -0.3184
     16 C         138.9771  143.9569  165.3981 C.3     1  UNL1        0.0885
     17 C         138.8412  144.8550  164.2043 C.3     1  UNL1        0.0260
     18 C         140.0125  145.0743  163.2934 C.3     1  UNL1        0.0309
     19 H         140.3738  142.6887  166.4644 H       1  UNL1        0.1482
     20 C         140.3920  137.8787  163.9565 C.3     1  UNL1        0.0439
     21 C         140.0343  140.0138  167.2828 C.ar    1  UNL1        0.0825
     22 C         138.6721  139.5901  167.7465 C.ar    1  UNL1        0.0191
     23 C         137.8833  138.5959  166.9469 C.ar    1  UNL1        0.0012
     24 C         138.4566  138.0255  165.6836 C.ar    1  UNL1       -0.0041
     25 C         139.8187  138.4492  165.2199 C.ar    1  UNL1       -0.0193
     26 C         140.6076  139.4433  166.0195 C.ar    1  UNL1        0.0149
     27 C         144.0088  142.4159  169.7957 C.3     1  UNL1        0.0344
     28 C         142.6500  142.1121  169.2374 C.ar    1  UNL1        0.0182
     29 C         141.4243  142.9634  169.3882 C.ar    1  UNL1        0.1178
     30 N         140.2953  142.2811  168.6744 N.ar    1  UNL1       -0.1638
     31 N         140.8232  141.0079  168.0824 N.ar    1  UNL1       -0.2285
     32 C         142.2785  140.9035  168.4304 C.ar    1  UNL1        0.0977
     33 C         139.5185  137.7001  162.7503 C.3     1  UNL1        0.0474
     34 C         138.9612  138.9001  162.0435 C.2     1  UNL1        0.0507
     35 O         139.8607  140.0477  161.6909 O.co2   1  UNL1       -0.5492
     36 O         137.5046  138.9526  161.6893 O.co2   1  UNL1       -0.5492
@<TRIPOS>UNITY_ATOM_ATTR
35 1
charge -1
@<TRIPOS>BOND
     1    27    28    1
     2    28    29   ar
     3    29    30   ar
     4    30    31   ar
     5    31    21    1
     6    21    22   ar
     7    22    23   ar
     8    23    24   ar
     9    24    25   ar
    10    25    20    1
    11    20    33    1
    12    33    34    1
    13    34    35   ar
    14    34    36   ar
    15    20     1    1
    16     1     2    1
    17     2     3    1
    18     3     4    1
    19     4     5    1
    20     5     7    1
    21     7     8    1
    22     8     9    1
    23     9    10   ar
    24    10    11   ar
    25    11    12   ar
    26    12    13   ar
    27    13    14   ar
    28    13    15    1
    29    15    16    1
    30    16    17    1
    31    17    18    1
    32     5     6    1
    33    25    26   ar
    34    31    32   ar
    35    32    28   ar
    36    26    21   ar
    37     6     2    1
    38    14     9   ar
    39    18    12    1
    40    15    19    1
@<TRIPOS>MOLECULE
*****
 36 40 0 0 0
SMALL
GASTEIGER

@<TRIPOS>ATOM
      1 C         138.5332  138.8467  164.2716 C.3     1  UNL1        0.0768
      2 N         138.2361  140.2667  163.8907 N.3     1  UNL1       -0.2724
      3 C         137.8897  140.7568  162.5159 C.3     1  UNL1        0.0721
      4 C         137.6728  142.2390  162.5931 C.3     1  UNL1        0.0187
      5 C         137.8851  142.6650  164.0156 C.3     1  UNL1        0.0178
      6 C         138.2333  141.4461  164.8175 C.3     1  UNL1        0.0721
      7 C         137.7696  144.0643  164.5434 C.3     1  UNL1        0.0077
      8 C         138.9996  144.8081  164.9719 C.3     1  UNL1        0.0459
      9 C         140.3318  144.4611  164.3759 C.ar    1  UNL1        0.0603
     10 C         140.8148  145.1783  163.1502 C.ar    1  UNL1        0.0145
     11 C         142.1468  144.8313  162.5543 C.ar    1  UNL1       -0.0003
     12 C         142.9959  143.7670  163.1840 C.ar    1  UNL1        0.0092
     13 C         142.5129  143.0499  164.4097 C.ar    1  UNL1        0.1240
     14 N         141.1808  143.3969  165.0057 N.ar    1  UNL1       -0.2356
     15 N         143.3619  141.9857  165.0395 N.pl3   1  UNL1       -0.3184
     16 C         144.6940  141.6387  164.4435 C.3     1  UNL1        0.0885
     17 C         145.1770  142.3559  163.2178 C.3     1  UNL1        0.0260
     18 C         144.3280  143.4200  162.5880 C.3     1  UNL1        0.0309
     19 H         143.0449  141.5150  165.8439 H       1  UNL1        0.1482
     20 C         139.9296  138.3132  164.1473 C.3     1  UNL1        0.0439
     21 C         141.6220  139.8689  167.3824 C.ar    1  UNL1        0.0825
     22 C         142.9857  139.2476  167.3155 C.ar    1  UNL1        0.0191
     23 C         143.3307  138.3149  166.1926 C.ar    1  UNL1        0.0012
     24 C         142.3120  138.0035  165.1365 C.ar    1  UNL1       -0.0041
     25 C         140.9483  138.6247  165.2034 C.ar    1  UNL1       -0.0193
     26 C         140.6033  139.5574  166.3263 C.ar    1  UNL1        0.0149
     27 C         140.4263  144.2402  170.0923 C.3     1  UNL1        0.0344
     28 C         140.7274  142.8108  169.7510 C.ar    1  UNL1        0.0182
     29 C         140.7649  141.6630  170.7159 C.ar    1  UNL1        0.1178
     30 N         141.1045  140.4212  169.9461 N.ar    1  UNL1       -0.1638
     31 N         141.2770  140.8016  168.5053 N.ar    1  UNL1       -0.2285
     32 C         141.0440  142.2784  168.3848 C.ar    1  UNL1        0.0977
     33 C         140.3074  137.4683  162.9669 C.3     1  UNL1        0.0474
     34 C         140.6350  138.1167  161.6545 C.2     1  UNL1        0.0507
     35 O         141.9987  138.6977  161.4247 O.co2   1  UNL1       -0.5492
     36 O         139.5989  138.1841  160.5719 O.co2   1  UNL1       -0.5492
@<TRIPOS>UNITY_ATOM_ATTR
35 1
charge -1
@<TRIPOS>BOND
     1    27    28    1
     2    28    29   ar
     3    29    30   ar
     4    30    31   ar
     5    31    21    1
     6    21    22   ar
     7    22    23   ar
     8    23    24   ar
     9    24    25   ar
    10    25    20    1
    11    20    33    1
    12    33    34    1
    13    34    35   ar
    14    34    36   ar
    15    20     1    1
    16     1     2    1
    17     2     3    1
    18     3     4    1
    19     4     5    1
    20     5     7    1
    21     7     8    1
    22     8     9    1
    23     9    10   ar
    24    10    11   ar
    25    11    12   ar
    26    12    13   ar
    27    13    14   ar
    28    13    15    1
    29    15    16    1
    30    16    17    1
    31    17    18    1
    32     5     6    1
    33    25    26   ar
    34    31    32   ar
    35    32    28   ar
    36    26    21   ar
    37     6     2    1
    38    14     9   ar
    39    18    12    1
    40    15    19    1
@<TRIPOS>MOLECULE
*****
 36 40 0 0 0
SMALL
GASTEIGER

@<TRIPOS>ATOM
      1 C         144.1332  139.7985  164.0388 C.3     1  UNL1        0.0768
      2 N         144.1947  141.2364  163.6159 N.3     1  UNL1       -0.2724
      3 C         144.9226  141.7731  162.4191 C.3     1  UNL1        0.0721
      4 C         144.7168  143.2584  162.3791 C.3     1  UNL1        0.0187
      5 C         143.8617  143.6396  163.5511 C.3     1  UNL1        0.0178
      6 C         143.5390  142.3900  164.3154 C.3     1  UNL1        0.0721
      7 C         143.4088  145.0269  163.8978 C.3     1  UNL1        0.0077
      8 C         141.9661  145.4061  163.7406 C.3     1  UNL1        0.0459
      9 C         140.9118  144.3403  163.6893 C.ar    1  UNL1        0.0603
     10 C         140.0424  144.0873  164.8852 C.ar    1  UNL1        0.0145
     11 C         138.9881  143.0215  164.8340 C.ar    1  UNL1       -0.0003
     12 C         138.8032  142.2087  163.5868 C.ar    1  UNL1        0.0092
     13 C         139.6726  142.4618  162.3910 C.ar    1  UNL1        0.1240
     14 N         140.7270  143.5276  162.4422 N.ar    1  UNL1       -0.2356
     15 N         139.4878  141.6491  161.1439 N.pl3   1  UNL1       -0.3184
     16 C         138.4335  140.5833  161.0926 C.3     1  UNL1        0.0885
     17 C         137.5641  140.3303  162.2885 C.3     1  UNL1        0.0260
     18 C         137.7489  141.1430  163.5356 C.3     1  UNL1        0.0309
     19 H         140.0584  141.8151  160.3590 H       1  UNL1        0.1482
     20 C         143.0237  138.9182  163.5449 C.3     1  UNL1        0.0439
     21 C         140.2732  139.5399  166.3375 C.ar    1  UNL1        0.0825
     22 C         139.1651  138.6566  165.8457 C.ar    1  UNL1        0.0191
     23 C         139.3432  137.8606  164.5869 C.ar    1  UNL1        0.0012
     24 C         140.6293  137.9478  163.8200 C.ar    1  UNL1       -0.0041
     25 C         141.7374  138.8311  164.3119 C.ar    1  UNL1       -0.0193
     26 C         141.5594  139.6271  165.5706 C.ar    1  UNL1        0.0149
     27 C         140.4843  143.4524  169.8772 C.3     1  UNL1        0.0344
     28 C         140.1922  142.1343  169.2233 C.ar    1  UNL1        0.0182
     29 C         139.4502  140.9877  169.8435 C.ar    1  UNL1        0.1178
     30 N         139.3903  139.8762  168.8380 N.ar    1  UNL1       -0.1638
     31 N         140.0952  140.3360  167.5963 N.ar    1  UNL1       -0.2285
     32 C         140.5908  141.7316  167.8345 C.ar    1  UNL1        0.0977
     33 C         143.2003  138.1251  162.2840 C.3     1  UNL1        0.0474
     34 C         143.0435  138.7926  160.9499 C.2     1  UNL1        0.0507
     35 O         141.7211  139.3816  160.5567 O.co2   1  UNL1       -0.5492
     36 O         144.2090  138.8712  160.0090 O.co2   1  UNL1       -0.5492
@<TRIPOS>UNITY_ATOM_ATTR
35 1
charge -1
@<TRIPOS>BOND
     1    27    28    1
     2    28    29   ar
     3    29    30   ar
     4    30    31   ar
     5    31    21    1
     6    21    22   ar
     7    22    23   ar
     8    23    24   ar
     9    24    25   ar
    10    25    20    1
    11    20    33    1
    12    33    34    1
    13    34    35   ar
    14    34    36   ar
    15    20     1    1
    16     1     2    1
    17     2     3    1
    18     3     4    1
    19     4     5    1
    20     5     7    1
    21     7     8    1
    22     8     9    1
    23     9    10   ar
    24    10    11   ar
    25    11    12   ar
    26    12    13   ar
    27    13    14   ar
    28    13    15    1
    29    15    16    1
    30    16    17    1
    31    17    18    1
    32     5     6    1
    33    25    26   ar
    34    31    32   ar
    35    32    28   ar
    36    26    21   ar
    37     6     2    1
    38    14     9   ar
    39    18    12    1
    40    15    19    1
@<TRIPOS>MOLECULE
*****
 36 40 0 0 0
SMALL
GASTEIGER

@<TRIPOS>ATOM
      1 C         138.6988  143.8004  164.5571 C.3     1  UNL1        0.0768
      2 N         139.9489  144.2955  163.8921 N.3     1  UNL1       -0.2724
      3 C         140.0154  145.2721  162.7555 C.3     1  UNL1        0.0721
      4 C         141.4595  145.4811  162.4079 C.3     1  UNL1        0.0187
      5 C         142.2855  144.6337  163.3296 C.3     1  UNL1        0.0178
      6 C         141.3519  143.9009  164.2469 C.3     1  UNL1        0.0721
      7 C         143.7823  144.5361  163.3334 C.3     1  UNL1        0.0077
      8 C         144.4496  143.2309  163.0155 C.3     1  UNL1        0.0459
      9 C         143.8230  141.9412  163.4563 C.ar    1  UNL1        0.0603
     10 C         144.0979  141.4049  164.8299 C.ar    1  UNL1        0.0145
     11 C         143.4713  140.1153  165.2707 C.ar    1  UNL1       -0.0003
     12 C         142.5699  139.3620  164.3379 C.ar    1  UNL1        0.0092
     13 C         142.2950  139.8984  162.9643 C.ar    1  UNL1        0.1240
     14 N         142.9216  141.1880  162.5235 N.ar    1  UNL1       -0.2356
     15 N         141.3936  139.1451  162.0316 N.pl3   1  UNL1       -0.3184
     16 C         140.7671  137.8556  162.4724 C.3     1  UNL1        0.0885
     17 C         141.0419  137.3192  163.8460 C.3     1  UNL1        0.0260
     18 C         141.9433  138.0724  164.7788 C.3     1  UNL1        0.0309
     19 H         141.2132  139.4972  161.1300 H       1  UNL1        0.1482
     20 C         138.2608  142.3785  164.3668 C.3     1  UNL1        0.0439
     21 C         140.1041  140.6014  167.3991 C.ar    1  UNL1        0.0825
     22 C         139.5208  139.2219  167.3162 C.ar    1  UNL1        0.0191
     23 C         138.5176  138.8946  166.2502 C.ar    1  UNL1        0.0012
     24 C         138.0976  139.9468  165.2671 C.ar    1  UNL1       -0.0041
     25 C         138.6808  141.3263  165.3500 C.ar    1  UNL1       -0.0193
     26 C         139.6841  141.6536  166.4159 C.ar    1  UNL1        0.0149
     27 C         144.2983  142.6077  169.9021 C.3     1  UNL1        0.0344
     28 C         143.0352  141.8509  169.6156 C.ar    1  UNL1        0.0182
     29 C         142.2673  141.0140  170.5953 C.ar    1  UNL1        0.1178
     30 N         141.0758  140.4440  169.8842 N.ar    1  UNL1       -0.1638
     31 N         141.1074  140.9287  168.4650 N.ar    1  UNL1       -0.2285
     32 C         142.3183  141.7982  168.2990 C.ar    1  UNL1        0.0977
     33 C         137.4027  142.0087  163.1934 C.3     1  UNL1        0.0474
     34 C         138.0130  141.8786  161.8293 C.2     1  UNL1        0.0507
     35 O         137.9653  143.0334  160.8730 O.co2   1  UNL1       -0.5492
     36 O         138.6711  140.5939  161.4215 O.co2   1  UNL1       -0.5492
@<TRIPOS>UNITY_ATOM_ATTR
35 1
charge -1
@<TRIPOS>BOND
     1    27    28    1
     2    28    29   ar
     3    29    30   ar
     4    30    31   ar
     5    31    21    1
     6    21    22   ar
     7    22    23   ar
     8    23    24   ar
     9    24    25   ar
    10    25    20    1
    11    20    33    1
    12    33    34    1
    13    34    35   ar
    14    34    36   ar
    15    20     1    1
    16     1     2    1
    17     2     3    1
    18     3     4    1
    19     4     5    1
    20     5     7    1
    21     7     8    1
    22     8     9    1
    23     9    10   ar
    24    10    11   ar
    25    11    12   ar
    26    12    13   ar
    27    13    14   ar
    28    13    15    1
    29    15    16    1
    30    16    17    1
    31    17    18    1
    32     5     6    1
    33    25    26   ar
    34    31    32   ar
    35    32    28   ar
    36    26    21   ar
    37     6     2    1
    38    14     9   ar
    39    18    12    1
    40    15    19    1
@<TRIPOS>MOLECULE
*****
 36 40 0 0 0
SMALL
GASTEIGER

@<TRIPOS>ATOM
      1 C         142.4226  141.2674  167.7917 C.3     1  UNL1        0.0768
      2 N         143.1330  141.1435  166.4764 N.3     1  UNL1       -0.2724
      3 C         143.2664  139.8916  165.6608 C.3     1  UNL1        0.0721
      4 C         144.0506  140.2241  164.4262 C.3     1  UNL1        0.0187
      5 C         144.4020  141.6814  164.4787 C.3     1  UNL1        0.0178
      6 C         143.8349  142.2496  165.7458 C.3     1  UNL1        0.0721
      7 C         145.1833  142.4377  163.4455 C.3     1  UNL1        0.0077
      8 C         144.4655  143.2462  162.4058 C.3     1  UNL1        0.0459
      9 C         142.9659  143.2609  162.3704 C.ar    1  UNL1        0.0603
     10 C         142.2331  142.4874  161.3146 C.ar    1  UNL1        0.0145
     11 C         140.7336  142.5021  161.2792 C.ar    1  UNL1       -0.0003
     12 C         139.9669  143.2902  162.2996 C.ar    1  UNL1        0.0092
     13 C         140.6998  144.0637  163.3553 C.ar    1  UNL1        0.1240
     14 N         142.1993  144.0490  163.3907 N.ar    1  UNL1       -0.2356
     15 N         139.9332  144.8518  164.3757 N.pl3   1  UNL1       -0.3184
     16 C         138.4337  144.8665  164.3402 C.3     1  UNL1        0.0885
     17 C         137.7008  144.0930  163.2845 C.3     1  UNL1        0.0260
     18 C         138.4674  143.3049  162.2641 C.3     1  UNL1        0.0309
     19 H         140.4142  145.3595  165.0686 H       1  UNL1        0.1482
     20 C         140.9733  141.6523  167.8279 C.3     1  UNL1        0.0439
     21 C         138.6848  139.3890  165.5061 C.ar    1  UNL1        0.0825
     22 C         137.8296  138.7051  166.5312 C.ar    1  UNL1        0.0191
     23 C         138.0222  139.0036  167.9885 C.ar    1  UNL1        0.0012
     24 C         139.0700  139.9860  168.4207 C.ar    1  UNL1       -0.0041
     25 C         139.9253  140.6699  167.3956 C.ar    1  UNL1       -0.0193
     26 C         139.7327  140.3714  165.9383 C.ar    1  UNL1        0.0149
     27 C         137.4387  139.8892  160.3994 C.3     1  UNL1        0.0344
     28 C         137.9195  139.3204  161.7015 C.ar    1  UNL1        0.0182
     29 C         138.4722  137.9417  161.9108 C.ar    1  UNL1        0.1178
     30 N         138.8262  137.7996  163.3615 N.ar    1  UNL1       -0.1638
     31 N         138.4922  139.0904  164.0488 N.ar    1  UNL1       -0.2285
     32 C         137.9318  140.0303  163.0228 C.ar    1  UNL1        0.0977
     33 C         140.5718  143.0195  168.2964 C.3     1  UNL1        0.0474
     34 C         140.4730  143.3103  169.7646 C.2     1  UNL1        0.0507
     35 O         140.6721  142.2081  170.7625 O.co2   1  UNL1       -0.5492
     36 O         140.1751  144.7031  170.2350 O.co2   1  UNL1       -0.5492
@<TRIPOS>UNITY_ATOM_ATTR
35 1
charge -1
@<TRIPOS>BOND
     1    27    28    1
     2    28    29   ar
     3    29    30   ar
     4    30    31   ar
     5    31    21    1
     6    21    22   ar
     7    22    23   ar
     8    23    24   ar
     9    24    25   ar
    10    25    20    1
    11    20    33    1
    12    33    34    1
    13    34    35   ar
    14    34    36   ar
    15    20     1    1
    16     1     2    1
    17     2     3    1
    18     3     4    1
    19     4     5    1
    20     5     7    1
    21     7     8    1
    22     8     9    1
    23     9    10   ar
    24    10    11   ar
    25    11    12   ar
    26    12    13   ar
    27    13    14   ar
    28    13    15    1
    29    15    16    1
    30    16    17    1
    31    17    18    1
    32     5     6    1
    33    25    26   ar
    34    31    32   ar
    35    32    28   ar
    36    26    21   ar
    37     6     2    1
    38    14     9   ar
    39    18    12    1
    40    15    19    1
@<TRIPOS>MOLECULE
*****
 36 40 0 0 0
SMALL
GASTEIGER

@<TRIPOS>ATOM
      1 C         139.5488  138.1285  160.3540 C.3     1  UNL1        0.0768
      2 N         139.8079  137.8705  161.8087 N.3     1  UNL1       -0.2724
      3 C         141.1475  137.6167  162.4343 C.3     1  UNL1        0.0721
      4 C         140.9404  137.4104  163.9055 C.3     1  UNL1        0.0187
      5 C         139.4729  137.5366  164.1893 C.3     1  UNL1        0.0178
      6 C         138.7730  137.8210  162.8934 C.3     1  UNL1        0.0721
      7 C         138.8200  137.4021  165.5330 C.3     1  UNL1        0.0077
      8 C         138.1350  138.5825  166.1554 C.3     1  UNL1        0.0459
      9 C         138.5835  139.9737  165.8184 C.ar    1  UNL1        0.0603
     10 C         139.7517  140.5800  166.5380 C.ar    1  UNL1        0.0145
     11 C         140.2002  141.9711  166.2010 C.ar    1  UNL1       -0.0003
     12 C         139.4806  142.7560  165.1444 C.ar    1  UNL1        0.0092
     13 C         138.3124  142.1496  164.4248 C.ar    1  UNL1        0.1240
     14 N         137.8639  140.7584  164.7619 N.ar    1  UNL1       -0.2356
     15 N         137.5928  142.9343  163.3683 N.pl3   1  UNL1       -0.3184
     16 C         138.0413  144.3254  163.0313 C.3     1  UNL1        0.0885
     17 C         139.2095  144.9318  163.7509 C.3     1  UNL1        0.0260
     18 C         139.9291  144.1471  164.8074 C.3     1  UNL1        0.0309
     19 H         136.8261  142.5363  162.8960 H       1  UNL1        0.1482
     20 C         140.4312  139.0711  159.5906 C.3     1  UNL1        0.0439
     21 C         141.2600  142.6352  161.1272 C.ar    1  UNL1        0.0825
     22 C         140.2515  143.4906  160.4193 C.ar    1  UNL1        0.0191
     23 C         139.3028  142.8729  159.4352 C.ar    1  UNL1        0.0012
     24 C         139.3627  141.3998  159.1590 C.ar    1  UNL1       -0.0041
     25 C         140.3713  140.5443  159.8669 C.ar    1  UNL1       -0.0193
     26 C         141.3200  141.1620  160.8510 C.ar    1  UNL1        0.0149
     27 C         144.4524  143.3142  165.2780 C.3     1  UNL1        0.0344
     28 C         143.6761  143.5650  164.0192 C.ar    1  UNL1        0.0182
     29 C         143.6610  144.8419  163.2322 C.ar    1  UNL1        0.1178
     30 N         142.7541  144.6490  162.0531 N.ar    1  UNL1       -0.1638
     31 N         142.2087  143.2529  162.1113 N.ar    1  UNL1       -0.2285
     32 C         142.7785  142.5830  163.3264 C.ar    1  UNL1        0.0977
     33 C         141.3735  138.5407  158.5510 C.3     1  UNL1        0.0474
     34 C         142.8257  138.3573  158.8787 C.2     1  UNL1        0.0507
     35 O         143.8310  139.3746  158.4262 O.co2   1  UNL1       -0.5492
     36 O         143.2727  137.1567  159.6589 O.co2   1  UNL1       -0.5492
@<TRIPOS>UNITY_ATOM_ATTR
35 1
charge -1
@<TRIPOS>BOND
     1    27    28    1
     2    28    29   ar
     3    29    30   ar
     4    30    31   ar
     5    31    21    1
     6    21    22   ar
     7    22    23   ar
     8    23    24   ar
     9    24    25   ar
    10    25    20    1
    11    20    33    1
    12    33    34    1
    13    34    35   ar
    14    34    36   ar
    15    20     1    1
    16     1     2    1
    17     2     3    1
    18     3     4    1
    19     4     5    1
    20     5     7    1
    21     7     8    1
    22     8     9    1
    23     9    10   ar
    24    10    11   ar
    25    11    12   ar
    26    12    13   ar
    27    13    14   ar
    28    13    15    1
    29    15    16    1
    30    16    17    1
    31    17    18    1
    32     5     6    1
    33    25    26   ar
    34    31    32   ar
    35    32    28   ar
    36    26    21   ar
    37     6     2    1
    38    14     9   ar
    39    18    12    1
    40    15    19    1
@<TRIPOS>MOLECULE
*****
 36 40 0 0 0
SMALL
GASTEIGER

@<TRIPOS>ATOM
      1 C         144.0687  143.2777  164.4768 C.3     1  UNL1        0.0768
      2 N         142.7759  143.9201  164.0694 N.3     1  UNL1       -0.2724
      3 C         142.5969  144.9168  162.9628 C.3     1  UNL1        0.0721
      4 C         141.1455  145.2913  162.9066 C.3     1  UNL1        0.0187
      5 C         140.4275  144.5260  163.9783 C.3     1  UNL1        0.0178
      6 C         141.4351  143.6786  164.6970 C.3     1  UNL1        0.0721
      7 C         138.9596  144.5960  164.2787 C.3     1  UNL1        0.0077
      8 C         138.0973  143.3829  164.0922 C.3     1  UNL1        0.0459
      9 C         138.7007  142.0125  164.1836 C.ar    1  UNL1        0.0603
     10 C         138.7436  141.2984  165.5020 C.ar    1  UNL1        0.0145
     11 C         139.3469  139.9281  165.5934 C.ar    1  UNL1       -0.0003
     12 C         139.9074  139.2720  164.3664 C.ar    1  UNL1        0.0092
     13 C         139.8645  139.9862  163.0480 C.ar    1  UNL1        0.1240
     14 N         139.2611  141.3565  162.9566 N.ar    1  UNL1       -0.2356
     15 N         140.4249  139.3301  161.8211 N.pl3   1  UNL1       -0.3184
     16 C         141.0282  137.9599  161.9125 C.3     1  UNL1        0.0885
     17 C         141.0711  137.2457  163.2308 C.3     1  UNL1        0.0260
     18 C         140.5107  137.9018  164.4578 C.3     1  UNL1        0.0309
     19 H         140.3967  139.7989  160.9558 H       1  UNL1        0.1482
     20 C         144.3026  141.8220  164.2006 C.3     1  UNL1        0.0439
     21 C         142.4965  140.1470  167.3123 C.ar    1  UNL1        0.0825
     22 C         142.9415  138.7221  167.1652 C.ar    1  UNL1        0.0191
     23 C         143.8402  138.3305  166.0298 C.ar    1  UNL1        0.0012
     24 C         144.2938  139.3637  165.0417 C.ar    1  UNL1       -0.0041
     25 C         143.8489  140.7887  165.1888 C.ar    1  UNL1       -0.0193
     26 C         142.9502  141.1803  166.3242 C.ar    1  UNL1        0.0149
     27 C         139.6645  143.0296  170.7111 C.3     1  UNL1        0.0344
     28 C         140.2961  141.8636  170.0099 C.ar    1  UNL1        0.0182
     29 C         140.1337  140.4190  170.3796 C.ar    1  UNL1        0.1178
     30 N         140.9381  139.6001  169.4141 N.ar    1  UNL1       -0.1638
     31 N         141.5978  140.5386  168.4476 N.ar    1  UNL1       -0.2285
     32 C         141.2010  141.9375  168.8159 C.ar    1  UNL1        0.0977
     33 C         144.9902  141.3996  162.9362 C.3     1  UNL1        0.0474
     34 C         144.3393  141.6511  161.6084 C.2     1  UNL1        0.0507
     35 O         144.9808  142.5826  160.6230 O.co2   1  UNL1       -0.5492
     36 O         143.0468  140.9711  161.2659 O.co2   1  UNL1       -0.5492
@<TRIPOS>UNITY_ATOM_ATTR
35 1
charge -1
@<TRIPOS>BOND
     1    27    28    1
     2    28    29   ar
     3    29    30   ar
     4    30    31   ar
     5    31    21    1
     6    21    22   ar
     7    22    23   ar
     8    23    24   ar
     9    24    25   ar
    10    25    20    1
    11    20    33    1
    12    33    34    1
    13    34    35   ar
    14    34    36   ar
    15    20     1    1
    16     1     2    1
    17     2     3    1
    18     3     4    1
    19     4     5    1
    20     5     7    1
    21     7     8    1
    22     8     9    1
    23     9    10   ar
    24    10    11   ar
    25    11    12   ar
    26    12    13   ar
    27    13    14   ar
    28    13    15    1
    29    15    16    1
    30    16    17    1
    31    17    18    1
    32     5     6    1
    33    25    26   ar
    34    31    32   ar
    35    32    28   ar
    36    26    21   ar
    37     6     2    1
    38    14     9   ar
    39    18    12    1
    40    15    19    1
@<TRIPOS>MOLECULE
*****
 36 40 0 0 0
SMALL
GASTEIGER

@<TRIPOS>ATOM
      1 C         140.6675  138.2118  163.6688 C.3     1  UNL1        0.0768
      2 N         142.0225  138.6377  164.1512 N.3     1  UNL1       -0.2724
      3 C         142.6481  138.2668  165.4631 C.3     1  UNL1        0.0721
      4 C         144.0020  138.9091  165.5290 C.3     1  UNL1        0.0187
      5 C         144.2132  139.6769  164.2579 C.3     1  UNL1        0.0178
      6 C         142.9898  139.5091  163.4063 C.3     1  UNL1        0.0721
      7 C         145.4336  140.4727  163.9010 C.3     1  UNL1        0.0077
      8 C         145.4618  141.9524  164.1450 C.3     1  UNL1        0.0459
      9 C         144.1981  142.7539  164.0412 C.ar    1  UNL1        0.0603
     10 C         144.0886  143.8535  163.0269 C.ar    1  UNL1        0.0145
     11 C         142.8250  144.6550  162.9230 C.ar    1  UNL1       -0.0003
     12 C         141.6707  144.3569  163.8335 C.ar    1  UNL1        0.0092
     13 C         141.7802  143.2573  164.8479 C.ar    1  UNL1        0.1240
     14 N         143.0439  142.4558  164.9517 N.ar    1  UNL1       -0.2356
     15 N         140.6261  142.9592  165.7583 N.pl3   1  UNL1       -0.3184
     16 C         139.3624  143.7607  165.6545 C.3     1  UNL1        0.0885
     17 C         139.2530  144.8603  164.6402 C.3     1  UNL1        0.0260
     18 C         140.4071  145.1584  163.7297 C.3     1  UNL1        0.0309
     19 H         140.6979  142.2374  166.4241 H       1  UNL1        0.1482
     20 C         139.4439  138.9535  164.1190 C.3     1  UNL1        0.0439
     21 C         139.5492  142.1331  161.7463 C.ar    1  UNL1        0.0825
     22 C         138.1976  142.7281  162.0096 C.ar    1  UNL1        0.0191
     23 C         137.2615  142.0650  162.9759 C.ar    1  UNL1        0.0012
     24 C         137.6769  140.8068  163.6790 C.ar    1  UNL1       -0.0041
     25 C         139.0285  140.2118  163.4158 C.ar    1  UNL1       -0.0193
     26 C         139.9646  140.8749  162.4494 C.ar    1  UNL1        0.0149
     27 C         141.6049  145.5585  158.2935 C.3     1  UNL1        0.0344
     28 C         141.4302  144.3707  159.1929 C.ar    1  UNL1        0.0182
     29 C         142.4215  143.2628  159.3928 C.ar    1  UNL1        0.1178
     30 N         141.8375  142.2898  160.3737 N.ar    1  UNL1       -0.1638
     31 N         140.4853  142.7963  160.7800 N.ar    1  UNL1       -0.2285
     32 C         140.2336  144.0824  160.0502 C.ar    1  UNL1        0.0977
     33 C         138.6357  138.4370  165.2722 C.3     1  UNL1        0.0474
     34 C         138.7295  139.1044  166.6123 C.2     1  UNL1        0.0507
     35 O         139.7344  140.1949  166.8385 O.co2   1  UNL1       -0.5492
     36 O         137.8184  138.6812  167.7263 O.co2   1  UNL1       -0.5492
@<TRIPOS>UNITY_ATOM_ATTR
35 1
charge -1
@<TRIPOS>BOND
     1    27    28    1
     2    28    29   ar
     3    29    30   ar
     4    30    31   ar
     5    31    21    1
     6    21    22   ar
     7    22    23   ar
     8    23    24   ar
     9    24    25   ar
    10    25    20    1
    11    20    33    1
    12    33    34    1
    13    34    35   ar
    14    34    36   ar
    15    20     1    1
    16     1     2    1
    17     2     3    1
    18     3     4    1
    19     4     5    1
    20     5     7    1
    21     7     8    1
    22     8     9    1
    23     9    10   ar
    24    10    11   ar
    25    11    12   ar
    26    12    13   ar
    27    13    14   ar
    28    13    15    1
    29    15    16    1
    30    16    17    1
    31    17    18    1
    32     5     6    1
    33    25    26   ar
    34    31    32   ar
    35    32    28   ar
    36    26    21   ar
    37     6     2    1
    38    14     9   ar
    39    18    12    1
    40    15    19    1
@<TRIPOS>MOLECULE
*****
 36 40 0 0 0
SMALL
GASTEIGER

@<TRIPOS>ATOM
      1 C         137.5881  142.7970  163.2156 C.3     1  UNL1        0.0768
      2 N         138.1327  142.2384  161.9344 N.3     1  UNL1       -0.2724
      3 C         138.7475  143.0299  160.8183 C.3     1  UNL1        0.0721
      4 C         139.1529  142.0708  159.7385 C.3     1  UNL1        0.0187
      5 C         138.7887  140.6866  160.1873 C.3     1  UNL1        0.0178
      6 C         138.1582  140.7902  161.5444 C.3     1  UNL1        0.0721
      7 C         139.0152  139.4211  159.4146 C.3     1  UNL1        0.0077
      8 C         140.2177  138.5720  159.7021 C.3     1  UNL1        0.0459
      9 C         140.7471  138.4707  161.1020 C.ar    1  UNL1        0.0603
     10 C         139.9147  137.8325  162.1742 C.ar    1  UNL1        0.0145
     11 C         140.4440  137.7313  163.5740 C.ar    1  UNL1       -0.0003
     12 C         141.8058  138.2682  163.9017 C.ar    1  UNL1        0.0092
     13 C         142.6382  138.9064  162.8294 C.ar    1  UNL1        0.1240
     14 N         142.1089  139.0077  161.4295 N.ar    1  UNL1       -0.2356
     15 N         144.0000  139.4434  163.1569 N.pl3   1  UNL1       -0.3184
     16 C         144.5293  139.3421  164.5568 C.3     1  UNL1        0.0885
     17 C         143.6968  138.7039  165.6290 C.3     1  UNL1        0.0260
     18 C         142.3351  138.1670  165.3015 C.3     1  UNL1        0.0309
     19 H         144.5463  139.8622  162.4532 H       1  UNL1        0.1482
     20 C         138.4942  142.9879  164.3957 C.3     1  UNL1        0.0439
     21 C         140.2430  140.7844  167.1951 C.ar    1  UNL1        0.0825
     22 C         139.4791  139.5001  167.0633 C.ar    1  UNL1        0.0191
     23 C         138.3870  139.3785  166.0423 C.ar    1  UNL1        0.0012
     24 C         138.0587  140.5410  165.1531 C.ar    1  UNL1       -0.0041
     25 C         138.8226  141.8253  165.2849 C.ar    1  UNL1       -0.0193
     26 C         139.9147  141.9469  166.3059 C.ar    1  UNL1        0.0149
     27 C         144.3485  142.6191  169.9627 C.3     1  UNL1        0.0344
     28 C         143.2222  141.7493  169.4883 C.ar    1  UNL1        0.0182
     29 C         142.8092  140.4372  170.0864 C.ar    1  UNL1        0.1178
     30 N         141.6429  139.9160  169.3002 N.ar    1  UNL1       -0.1638
     31 N         141.3351  140.9061  168.2161 N.ar    1  UNL1       -0.2285
     32 C         142.3111  142.0391  168.3324 C.ar    1  UNL1        0.0977
     33 C         139.0719  144.3412  164.6865 C.3     1  UNL1        0.0474
     34 C         140.2442  144.8420  163.8959 C.2     1  UNL1        0.0507
     35 O         141.6399  144.4964  164.3236 O.co2   1  UNL1       -0.5492
     36 O         140.0209  145.6882  162.6778 O.co2   1  UNL1       -0.5492
@<TRIPOS>UNITY_ATOM_ATTR
35 1
charge -1
@<TRIPOS>BOND
     1    27    28    1
     2    28    29   ar
     3    29    30   ar
     4    30    31   ar
     5    31    21    1
     6    21    22   ar
     7    22    23   ar
     8    23    24   ar
     9    24    25   ar
    10    25    20    1
    11    20    33    1
    12    33    34    1
    13    34    35   ar
    14    34    36   ar
    15    20     1    1
    16     1     2    1
    17     2     3    1
    18     3     4    1
    19     4     5    1
    20     5     7    1
    21     7     8    1
    22     8     9    1
    23     9    10   ar
    24    10    11   ar
    25    11    12   ar
    26    12    13   ar
    27    13    14   ar
    28    13    15    1
    29    15    16    1
    30    16    17    1
    31    17    18    1
    32     5     6    1
    33    25    26   ar
    34    31    32   ar
    35    32    28   ar
    36    26    21   ar
    37     6     2    1
    38    14     9   ar
    39    18    12    1
    40    15    19    1
