@<TRIPOS>MOLECULE
*****
 43 48 0 0 0
SMALL
GASTEIGER

@<TRIPOS>ATOM
      1 C         137.8774  143.0219  162.8708 C.3     1  UNL1        0.0932
      2 C         137.6223  141.8959  163.8285 C.3     1  UNL1        0.0286
      3 C         137.6144  140.4793  163.3355 C.3     1  UNL1        0.0193
      4 C         137.8617  140.1885  161.8849 C.3     1  UNL1        0.0700
      5 C         138.1168  141.3145  160.9272 C.3     1  UNL1        0.0193
      6 C         138.1246  142.7312  161.4202 C.3     1  UNL1        0.0286
      7 C         137.8757  140.9809  162.1082 C.3     1  UNL1        0.1562
      8 O         137.8829  142.2619  162.5539 O.3     1  UNL1       -0.3572
      9 N         137.8538  138.7719  161.3919 N.3     1  UNL1       -0.2926
     10 H         137.2984  138.7609  160.5364 H       1  UNL1        0.1236
     11 C         139.1470  138.0800  161.0775 C.3     1  UNL1        0.1152
     12 C         140.3333  138.2624  161.9772 C.ar    1  UNL1        0.0765
     13 C         140.4547  137.4498  163.2323 C.ar    1  UNL1        0.0193
     14 C         141.6409  137.6321  164.1320 C.ar    1  UNL1        0.0411
     15 C         142.7058  138.6270  163.7768 C.ar    1  UNL1        0.1708
     16 C         142.5844  139.4396  162.5218 C.ar    1  UNL1        0.1682
     17 N         141.3981  139.2573  161.6220 N.ar    1  UNL1       -0.2304
     18 N         143.6493  140.4345  162.1666 N.am    1  UNL1       -0.2639
     19 C         144.8355  140.6169  163.0663 C.2     1  UNL1        0.2718
     20 O         145.9004  141.6118  162.7111 O.2     1  UNL1       -0.2707
     21 C         144.9569  139.8043  164.3214 C.3     1  UNL1        0.2898
     22 O         143.8921  138.8094  164.6766 O.3     1  UNL1       -0.4628
     23 H         143.5696  140.9679  161.3429 H       1  UNL1        0.1565
     24 C         137.8853  144.4385  163.3638 C.3     1  UNL1        0.0320
     25 C         138.8784  144.8652  164.4038 C.3     1  UNL1        0.0327
     26 C         140.7707  141.8663  167.1743 C.ar    1  UNL1        0.2249
     27 C         142.2196  141.5110  167.0182 C.ar    1  UNL1        0.0593
     28 C         143.0377  142.1553  165.9386 C.ar    1  UNL1        0.0254
     29 C         142.4070  143.1549  165.0151 C.ar    1  UNL1        0.0990
     30 N         143.2252  143.7992  163.9356 N.ar    1  UNL1       -0.2400
     31 C         142.5945  144.7988  163.0121 C.ar    1  UNL1        0.1281
     32 C         141.1455  145.1542  163.1681 C.ar    1  UNL1        0.1566
     33 F         140.5148  146.1539  162.2447 F       1  UNL1       -0.2028
     34 C         140.3273  144.5099  164.2477 C.ar    1  UNL1        0.0261
     35 C         140.9581  143.5102  165.1712 C.ar    1  UNL1        0.1002
     36 N         140.1400  142.8659  166.2508 N.ar    1  UNL1       -0.2104
     37 O         139.9525  141.2220  168.2538 O.3     1  UNL1       -0.4602
     38 C         139.3371  139.8734  168.0247 C.3     1  UNL1        0.2085
     39 C         138.8675  139.4865  166.6536 C.3     1  UNL1        0.0642
     40 N         136.9947  137.8989  167.5038 N.3     1  UNL1       -0.3210
     41 C         138.0175  138.2643  166.4692 C.3     1  UNL1        0.0690
     42 H         136.5123  137.0466  167.2188 H       1  UNL1        0.1189
     43 H         136.3190  138.6573  167.5965 H       1  UNL1        0.1189
@<TRIPOS>BOND
     1    40    41    1
     2    41    39    1
     3    39    38    1
     4    38    37    1
     5    37    26    1
     6    26    27   ar
     7    27    28   ar
     8    28    29   ar
     9    29    30   ar
    10    30    31   ar
    11    31    32   ar
    12    32    33    1
    13    32    34   ar
    14    34    25    1
    15    25    24    1
    16    24     1    1
    17     1     2    1
    18     2     3    1
    19     3     4    1
    20     4     9    1
    21     9    11    1
    22    11    12    1
    23    12    13   ar
    24    13    14   ar
    25    14    15   ar
    26    15    16   ar
    27    16    17   ar
    28    16    18    1
    29    18    19   am
    30    19    20    2
    31    19    21    1
    32    21    22    1
    33     4     5    1
    34     5     6    1
    35     4     7    1
    36     7     8    1
    37    34    35   ar
    38    35    36   ar
    39    36    26   ar
    40    35    29   ar
    41     6     1    1
    42     8     1    1
    43    17    12   ar
    44    22    15    1
    45    40    42    1
    46    40    43    1
    47     9    10    1
    48    18    23    1
@<TRIPOS>MOLECULE
*****
 43 48 0 0 0
SMALL
GASTEIGER

@<TRIPOS>ATOM
      1 C         137.8343  142.9863  162.9614 C.3     1  UNL1        0.0932
      2 C         137.6629  141.8643  163.9420 C.3     1  UNL1        0.0286
      3 C         137.6838  140.4421  163.4655 C.3     1  UNL1        0.0193
      4 C         137.8761  140.1420  162.0084 C.3     1  UNL1        0.0700
      5 C         138.0475  141.2641  161.0279 C.3     1  UNL1        0.0193
      6 C         138.0266  142.6863  161.5044 C.3     1  UNL1        0.0286
      7 C         137.8717  140.9371  162.2221 C.3     1  UNL1        0.1562
      8 O         137.8528  142.2231  162.6529 O.3     1  UNL1       -0.3572
      9 N         137.8970  138.7199  161.5320 N.3     1  UNL1       -0.2926
     10 H         137.2990  138.6770  160.7068 H       1  UNL1        0.1236
     11 C         139.1978  138.0731  161.1583 C.3     1  UNL1        0.1152
     12 C         140.4047  138.2576  162.0296 C.ar    1  UNL1        0.0765
     13 C         140.5731  137.4226  163.2644 C.ar    1  UNL1        0.0193
     14 C         141.7800  137.6071  164.1357 C.ar    1  UNL1        0.0411
     15 C         142.8186  138.6266  163.7723 C.ar    1  UNL1        0.1708
     16 C         142.6503  139.4615  162.5376 C.ar    1  UNL1        0.1682
     17 N         141.4433  139.2770  161.6662 N.ar    1  UNL1       -0.2304
     18 N         143.6889  140.4809  162.1742 N.am    1  UNL1       -0.2639
     19 C         144.8959  140.6654  163.0456 C.2     1  UNL1        0.2718
     20 O         145.9345  141.6848  162.6822 O.2     1  UNL1       -0.2707
     21 C         145.0642  139.8304  164.2803 C.3     1  UNL1        0.2898
     22 O         144.0256  138.8110  164.6437 O.3     1  UNL1       -0.4628
     23 H         143.5784  141.0289  161.3639 H       1  UNL1        0.1565
     24 C         137.8134  144.4085  163.4378 C.3     1  UNL1        0.0320
     25 C         138.9153  144.9212  164.3171 C.3     1  UNL1        0.0327
     26 C         140.8951  142.0691  167.1800 C.ar    1  UNL1        0.2249
     27 C         142.3096  141.6299  166.9431 C.ar    1  UNL1        0.0593
     28 C         143.0642  142.1413  165.7518 C.ar    1  UNL1        0.0254
     29 C         142.4043  143.0919  164.7975 C.ar    1  UNL1        0.0990
     30 N         143.1589  143.6033  163.6063 N.ar    1  UNL1       -0.2400
     31 C         142.4990  144.5540  162.6520 C.ar    1  UNL1        0.1281
     32 C         141.0844  144.9933  162.8889 C.ar    1  UNL1        0.1566
     33 F         140.4245  145.9439  161.9346 F       1  UNL1       -0.2028
     34 C         140.3298  144.4819  164.0801 C.ar    1  UNL1        0.0261
     35 C         140.9898  143.5312  165.0345 C.ar    1  UNL1        0.1002
     36 N         140.2352  143.0198  166.2257 N.ar    1  UNL1       -0.2104
     37 O         140.1405  141.5578  168.3713 O.3     1  UNL1       -0.4602
     38 C         139.9959  142.4164  169.5927 C.3     1  UNL1        0.2085
     39 C         141.0130  143.4788  169.8873 C.3     1  UNL1        0.0642
     40 N         142.3123  142.2267  171.7566 N.3     1  UNL1       -0.3210
     41 C         142.3099  143.1134  170.5467 C.3     1  UNL1        0.0690
     42 H         143.2720  142.0834  172.0711 H       1  UNL1        0.1189
     43 H         141.8942  141.3270  171.5196 H       1  UNL1        0.1189
@<TRIPOS>BOND
     1    40    41    1
     2    41    39    1
     3    39    38    1
     4    38    37    1
     5    37    26    1
     6    26    27   ar
     7    27    28   ar
     8    28    29   ar
     9    29    30   ar
    10    30    31   ar
    11    31    32   ar
    12    32    33    1
    13    32    34   ar
    14    34    25    1
    15    25    24    1
    16    24     1    1
    17     1     2    1
    18     2     3    1
    19     3     4    1
    20     4     9    1
    21     9    11    1
    22    11    12    1
    23    12    13   ar
    24    13    14   ar
    25    14    15   ar
    26    15    16   ar
    27    16    17   ar
    28    16    18    1
    29    18    19   am
    30    19    20    2
    31    19    21    1
    32    21    22    1
    33     4     5    1
    34     5     6    1
    35     4     7    1
    36     7     8    1
    37    34    35   ar
    38    35    36   ar
    39    36    26   ar
    40    35    29   ar
    41     6     1    1
    42     8     1    1
    43    17    12   ar
    44    22    15    1
    45    40    42    1
    46    40    43    1
    47     9    10    1
    48    18    23    1
@<TRIPOS>MOLECULE
*****
 43 48 0 0 0
SMALL
GASTEIGER

@<TRIPOS>ATOM
      1 C         142.0484  137.9793  164.0960 C.3     1  UNL1        0.0932
      2 C         143.0055  138.4193  165.1639 C.3     1  UNL1        0.0286
      3 C         144.1806  139.2813  164.8091 C.3     1  UNL1        0.0193
      4 C         144.3988  139.7032  163.3862 C.3     1  UNL1        0.0700
      5 C         143.4418  139.2632  162.3183 C.3     1  UNL1        0.0193
      6 C         142.2665  138.4012  162.6732 C.3     1  UNL1        0.0286
      7 C         143.7406  139.2306  163.5323 C.3     1  UNL1        0.1562
      8 O         142.6779  138.4512  163.8532 O.3     1  UNL1       -0.3572
      9 N         145.5739  140.5652  163.0314 N.3     1  UNL1       -0.2926
     10 H         145.6426  140.5651  162.0137 H       1  UNL1        0.1236
     11 C         145.6107  141.9999  163.4676 C.3     1  UNL1        0.1152
     12 C         144.3991  142.8673  163.2957 C.ar    1  UNL1        0.0765
     13 C         143.7012  143.4280  164.4993 C.ar    1  UNL1        0.0193
     14 C         142.4896  144.2955  164.3273 C.ar    1  UNL1        0.0411
     15 C         141.9760  144.6023  162.9518 C.ar    1  UNL1        0.1708
     16 C         142.6739  144.0417  161.7482 C.ar    1  UNL1        0.1682
     17 N         143.8855  143.1742  161.9202 N.ar    1  UNL1       -0.2304
     18 N         142.1602  144.3485  160.3727 N.am    1  UNL1       -0.2639
     19 C         140.9487  145.2160  160.2007 C.2     1  UNL1        0.2718
     20 O         140.4351  145.5228  158.8252 O.2     1  UNL1       -0.2707
     21 C         140.2507  145.7767  161.4043 C.3     1  UNL1        0.2898
     22 O         140.7644  145.4698  162.7798 O.3     1  UNL1       -0.4628
     23 H         142.6183  143.9805  159.5828 H       1  UNL1        0.1565
     24 C         140.8733  137.1173  164.4509 C.3     1  UNL1        0.0320
     25 C         139.6074  137.7452  164.9543 C.3     1  UNL1        0.0327
     26 C         140.4514  141.4954  167.2939 C.ar    1  UNL1        0.2249
     27 C         140.0112  142.8267  166.7612 C.ar    1  UNL1        0.0593
     28 C         139.2896  142.9079  165.4487 C.ar    1  UNL1        0.0254
     29 C         139.0083  141.6579  164.6688 C.ar    1  UNL1        0.0990
     30 N         138.2867  141.7392  163.3563 N.ar    1  UNL1       -0.2400
     31 C         138.0054  140.4892  162.5764 C.ar    1  UNL1        0.1281
     32 C         138.4456  139.1578  163.1091 C.ar    1  UNL1        0.1566
     33 F         138.1643  137.9077  162.3292 F       1  UNL1       -0.2028
     34 C         139.1672  139.0765  164.4216 C.ar    1  UNL1        0.0261
     35 C         139.4485  140.3266  165.2015 C.ar    1  UNL1        0.1002
     36 N         140.1700  140.2453  166.5140 N.ar    1  UNL1       -0.2104
     37 O         141.1729  141.4141  168.6064 O.3     1  UNL1       -0.4602
     38 C         142.6683  141.2995  168.6344 C.3     1  UNL1        0.2085
     39 C         143.4884  142.3517  169.3201 C.3     1  UNL1        0.0642
     40 N         142.1906  142.2496  171.5685 N.3     1  UNL1       -0.3210
     41 C         142.9594  143.0339  170.5468 C.3     1  UNL1        0.0690
     42 H         141.9093  142.8671  172.3300 H       1  UNL1        0.1189
     43 H         142.7791  141.5021  171.9366 H       1  UNL1        0.1189
@<TRIPOS>BOND
     1    40    41    1
     2    41    39    1
     3    39    38    1
     4    38    37    1
     5    37    26    1
     6    26    27   ar
     7    27    28   ar
     8    28    29   ar
     9    29    30   ar
    10    30    31   ar
    11    31    32   ar
    12    32    33    1
    13    32    34   ar
    14    34    25    1
    15    25    24    1
    16    24     1    1
    17     1     2    1
    18     2     3    1
    19     3     4    1
    20     4     9    1
    21     9    11    1
    22    11    12    1
    23    12    13   ar
    24    13    14   ar
    25    14    15   ar
    26    15    16   ar
    27    16    17   ar
    28    16    18    1
    29    18    19   am
    30    19    20    2
    31    19    21    1
    32    21    22    1
    33     4     5    1
    34     5     6    1
    35     4     7    1
    36     7     8    1
    37    34    35   ar
    38    35    36   ar
    39    36    26   ar
    40    35    29   ar
    41     6     1    1
    42     8     1    1
    43    17    12   ar
    44    22    15    1
    45    40    42    1
    46    40    43    1
    47     9    10    1
    48    18    23    1
@<TRIPOS>MOLECULE
*****
 43 48 0 0 0
SMALL
GASTEIGER

@<TRIPOS>ATOM
      1 C         137.8561  141.7218  163.9325 C.3     1  UNL1        0.0932
      2 C         138.1807  141.2575  162.5436 C.3     1  UNL1        0.0286
      3 C         138.7068  139.8707  162.3202 C.3     1  UNL1        0.0193
      4 C         138.9083  138.9481  163.4857 C.3     1  UNL1        0.0700
      5 C         138.5837  139.4124  164.8746 C.3     1  UNL1        0.0193
      6 C         138.0576  140.7993  165.0980 C.3     1  UNL1        0.0286
      7 C         138.6177  139.6990  163.6577 C.3     1  UNL1        0.1562
      8 O         138.1420  140.9530  163.8598 O.3     1  UNL1       -0.3572
      9 N         139.4344  137.5613  163.2623 N.3     1  UNL1       -0.2926
     10 H         139.6037  137.4684  162.2608 H       1  UNL1        0.1236
     11 C         140.6863  137.1132  163.9565 C.3     1  UNL1        0.1152
     12 C         141.8737  138.0270  164.0257 C.ar    1  UNL1        0.0765
     13 C         142.7678  138.0052  165.2300 C.ar    1  UNL1        0.0193
     14 C         143.9552  138.9191  165.2992 C.ar    1  UNL1        0.0411
     15 C         144.2486  139.8549  164.1642 C.ar    1  UNL1        0.1708
     16 C         143.3546  139.8768  162.9600 C.ar    1  UNL1        0.1682
     17 N         142.1671  138.9629  162.8907 N.ar    1  UNL1       -0.2304
     18 N         143.6479  140.8126  161.8250 N.am    1  UNL1       -0.2639
     19 C         144.8353  141.7265  161.8942 C.2     1  UNL1        0.2718
     20 O         145.1287  142.6623  160.7592 O.2     1  UNL1       -0.2707
     21 C         145.7294  141.7046  163.0984 C.3     1  UNL1        0.2898
     22 O         145.4361  140.7688  164.2334 O.3     1  UNL1       -0.4628
     23 H         143.0611  140.8269  161.0346 H       1  UNL1        0.1565
     24 C         137.3300  143.1086  164.1560 C.3     1  UNL1        0.0320
     25 C         138.2248  144.1668  164.7302 C.3     1  UNL1        0.0327
     26 C         141.6154  142.2567  166.9898 C.ar    1  UNL1        0.2249
     27 C         143.0231  142.3997  166.4919 C.ar    1  UNL1        0.0593
     28 C         143.3006  143.1794  165.2409 C.ar    1  UNL1        0.0254
     29 C         142.1705  143.8161  164.4877 C.ar    1  UNL1        0.0990
     30 N         142.4480  144.5957  163.2367 N.ar    1  UNL1       -0.2400
     31 C         141.3178  145.2324  162.4835 C.ar    1  UNL1        0.1281
     32 C         139.9100  145.0894  162.9813 C.ar    1  UNL1        0.1566
     33 F         138.7799  145.7261  162.2282 F       1  UNL1       -0.2028
     34 C         139.6325  144.3098  164.2324 C.ar    1  UNL1        0.0261
     35 C         140.7628  143.6731  164.9856 C.ar    1  UNL1        0.1002
     36 N         140.4852  142.8934  166.2366 N.ar    1  UNL1       -0.2104
     37 O         141.3379  141.4770  168.2408 O.3     1  UNL1       -0.4602
     38 C         140.0913  140.6496  168.3479 C.3     1  UNL1        0.2085
     39 C         139.3697  140.5467  169.6588 C.3     1  UNL1        0.0642
     40 N         140.7026  140.7263  171.8818 N.3     1  UNL1       -0.3210
     41 C         140.0349  139.8890  170.8315 C.3     1  UNL1        0.0690
     42 H         141.0992  140.1193  172.5991 H       1  UNL1        0.1189
     43 H         140.0164  141.3505  172.3059 H       1  UNL1        0.1189
@<TRIPOS>BOND
     1    40    41    1
     2    41    39    1
     3    39    38    1
     4    38    37    1
     5    37    26    1
     6    26    27   ar
     7    27    28   ar
     8    28    29   ar
     9    29    30   ar
    10    30    31   ar
    11    31    32   ar
    12    32    33    1
    13    32    34   ar
    14    34    25    1
    15    25    24    1
    16    24     1    1
    17     1     2    1
    18     2     3    1
    19     3     4    1
    20     4     9    1
    21     9    11    1
    22    11    12    1
    23    12    13   ar
    24    13    14   ar
    25    14    15   ar
    26    15    16   ar
    27    16    17   ar
    28    16    18    1
    29    18    19   am
    30    19    20    2
    31    19    21    1
    32    21    22    1
    33     4     5    1
    34     5     6    1
    35     4     7    1
    36     7     8    1
    37    34    35   ar
    38    35    36   ar
    39    36    26   ar
    40    35    29   ar
    41     6     1    1
    42     8     1    1
    43    17    12   ar
    44    22    15    1
    45    40    42    1
    46    40    43    1
    47     9    10    1
    48    18    23    1
@<TRIPOS>MOLECULE
*****
 43 48 0 0 0
SMALL
GASTEIGER

@<TRIPOS>ATOM
      1 C         143.8035  141.9002  163.9914 C.3     1  UNL1        0.0932
      2 C         144.0164  142.6565  162.7137 C.3     1  UNL1        0.0286
      3 C         143.2698  143.9333  162.4645 C.3     1  UNL1        0.0193
      4 C         142.3101  144.4539  163.4931 C.3     1  UNL1        0.0700
      5 C         142.0971  143.6977  164.7709 C.3     1  UNL1        0.0193
      6 C         142.8438  142.4208  165.0200 C.3     1  UNL1        0.0286
      7 C         142.6964  143.7498  163.6744 C.3     1  UNL1        0.1562
      8 O         143.3715  142.5952  163.8998 O.3     1  UNL1       -0.3572
      9 N         141.5634  145.7308  163.2440 N.3     1  UNL1       -0.2926
     10 H         142.2206  146.3752  162.8044 H       1  UNL1        0.1236
     11 C         140.3287  145.7236  162.3923 C.3     1  UNL1        0.1152
     12 C         139.5409  144.4583  162.2242 C.ar    1  UNL1        0.0765
     13 C         138.4709  144.1039  163.2139 C.ar    1  UNL1        0.0193
     14 C         137.6831  142.8386  163.0458 C.ar    1  UNL1        0.0411
     15 C         137.9652  141.9276  161.8879 C.ar    1  UNL1        0.1708
     16 C         139.0351  142.2820  160.8982 C.ar    1  UNL1        0.1682
     17 N         139.8230  143.5474  161.0663 N.ar    1  UNL1       -0.2304
     18 N         139.3173  141.3711  159.7403 N.am    1  UNL1       -0.2639
     19 C         138.5295  140.1058  159.5722 C.2     1  UNL1        0.2718
     20 O         138.8116  139.1949  158.4143 O.2     1  UNL1       -0.2707
     21 C         137.4595  139.7514  160.5619 C.3     1  UNL1        0.2898
     22 O         137.1773  140.6623  161.7198 O.3     1  UNL1       -0.4628
     23 H         140.0195  141.6038  159.0907 H       1  UNL1        0.1565
     24 C         144.5501  140.6234  164.2406 C.3     1  UNL1        0.0320
     25 C         143.8070  139.3895  164.6596 C.3     1  UNL1        0.0327
     26 C         139.5740  139.3440  166.1858 C.ar    1  UNL1        0.2249
     27 C         138.4718  138.8033  165.3240 C.ar    1  UNL1        0.0593
     28 C         138.7806  138.2777  163.9534 C.ar    1  UNL1        0.0254
     29 C         140.1916  138.2929  163.4447 C.ar    1  UNL1        0.0990
     30 N         140.5004  137.7673  162.0741 N.ar    1  UNL1       -0.2400
     31 C         141.9114  137.7825  161.5654 C.ar    1  UNL1        0.1281
     32 C         143.0137  138.3232  162.4272 C.ar    1  UNL1        0.1566
     33 F         144.4247  138.3384  161.9185 F       1  UNL1       -0.2028
     34 C         142.7049  138.8488  163.7978 C.ar    1  UNL1        0.0261
     35 C         141.2938  138.8336  164.3065 C.ar    1  UNL1        0.1002
     36 N         140.9850  139.3591  165.6771 N.ar    1  UNL1       -0.2104
     37 O         139.2652  139.8695  167.5564 O.3     1  UNL1       -0.4602
     38 C         140.3235  140.5873  168.3404 C.3     1  UNL1        0.2085
     39 C         140.9838  139.9097  169.5044 C.3     1  UNL1        0.0642
     40 N         142.9913  138.9696  168.1493 N.3     1  UNL1       -0.3210
     41 C         142.4314  139.5245  169.4254 C.3     1  UNL1        0.0690
     42 H         143.9826  138.7641  168.2740 H       1  UNL1        0.1189
     43 H         142.8774  139.6543  167.4019 H       1  UNL1        0.1189
@<TRIPOS>BOND
     1    40    41    1
     2    41    39    1
     3    39    38    1
     4    38    37    1
     5    37    26    1
     6    26    27   ar
     7    27    28   ar
     8    28    29   ar
     9    29    30   ar
    10    30    31   ar
    11    31    32   ar
    12    32    33    1
    13    32    34   ar
    14    34    25    1
    15    25    24    1
    16    24     1    1
    17     1     2    1
    18     2     3    1
    19     3     4    1
    20     4     9    1
    21     9    11    1
    22    11    12    1
    23    12    13   ar
    24    13    14   ar
    25    14    15   ar
    26    15    16   ar
    27    16    17   ar
    28    16    18    1
    29    18    19   am
    30    19    20    2
    31    19    21    1
    32    21    22    1
    33     4     5    1
    34     5     6    1
    35     4     7    1
    36     7     8    1
    37    34    35   ar
    38    35    36   ar
    39    36    26   ar
    40    35    29   ar
    41     6     1    1
    42     8     1    1
    43    17    12   ar
    44    22    15    1
    45    40    42    1
    46    40    43    1
    47     9    10    1
    48    18    23    1
@<TRIPOS>MOLECULE
*****
 43 48 0 0 0
SMALL
GASTEIGER

@<TRIPOS>ATOM
      1 C         139.1741  142.8195  163.9429 C.3     1  UNL1        0.0932
      2 C         139.4318  143.1215  162.4964 C.3     1  UNL1        0.0286
      3 C         140.6452  143.9089  162.0993 C.3     1  UNL1        0.0193
      4 C         141.6008  144.3944  163.1487 C.3     1  UNL1        0.0700
      5 C         141.3431  144.0924  164.5952 C.3     1  UNL1        0.0193
      6 C         140.1297  143.3049  164.9923 C.3     1  UNL1        0.0286
      7 C         140.9496  143.9665  163.4147 C.3     1  UNL1        0.1562
      8 O         139.8525  143.2545  163.7739 O.3     1  UNL1       -0.3572
      9 N         142.8142  145.1817  162.7515 N.3     1  UNL1       -0.2926
     10 H         142.9410  145.9045  163.4599 H       1  UNL1        0.1236
     11 C         144.1372  144.4925  162.5944 C.3     1  UNL1        0.1152
     12 C         144.2026  142.9945  162.5562 C.ar    1  UNL1        0.0765
     13 C         144.7000  142.2348  163.7503 C.ar    1  UNL1        0.0193
     14 C         144.7654  140.7368  163.7122 C.ar    1  UNL1        0.0411
     15 C         144.3335  139.9983  162.4800 C.ar    1  UNL1        0.1708
     16 C         143.8362  140.7579  161.2860 C.ar    1  UNL1        0.1682
     17 N         143.7707  142.2560  161.3241 N.ar    1  UNL1       -0.2304
     18 N         143.4043  140.0194  160.0539 N.am    1  UNL1       -0.2639
     19 C         143.4697  138.5213  160.0158 C.2     1  UNL1        0.2718
     20 O         143.0378  137.7829  158.7837 O.2     1  UNL1       -0.2707
     21 C         143.9671  137.7617  161.2098 C.3     1  UNL1        0.2898
     22 O         144.3990  138.5002  162.4420 O.3     1  UNL1       -0.4628
     23 H         143.0779  140.5180  159.2703 H       1  UNL1        0.1565
     24 C         137.9607  142.0321  164.3401 C.3     1  UNL1        0.0320
     25 C         138.1178  140.6969  165.0053 C.3     1  UNL1        0.0327
     26 C         141.9164  139.9766  167.3078 C.ar    1  UNL1        0.2249
     27 C         142.9303  138.9976  166.7945 C.ar    1  UNL1        0.0593
     28 C         142.6780  138.2586  165.5138 C.ar    1  UNL1        0.0254
     29 C         141.4119  138.4987  164.7463 C.ar    1  UNL1        0.0990
     30 N         141.1596  137.7598  163.4655 N.ar    1  UNL1       -0.2400
     31 C         139.8934  137.9999  162.6980 C.ar    1  UNL1        0.1281
     32 C         138.8794  138.9790  163.2113 C.ar    1  UNL1        0.1566
     33 F         137.6132  139.2190  162.4438 F       1  UNL1       -0.2028
     34 C         139.1317  139.7179  164.4920 C.ar    1  UNL1        0.0261
     35 C         140.3980  139.4777  165.2595 C.ar    1  UNL1        0.1002
     36 N         140.6502  140.2166  166.5403 N.ar    1  UNL1       -0.2104
     37 O         142.1687  140.7155  168.5886 O.3     1  UNL1       -0.4602
     38 C         142.2540  142.2130  168.5862 C.3     1  UNL1        0.2085
     39 C         141.6941  142.9980  169.7352 C.3     1  UNL1        0.0642
     40 N         139.4634  143.2716  171.0387 N.3     1  UNL1       -0.3210
     41 C         140.2386  143.3602  169.7576 C.3     1  UNL1        0.0690
     42 H         138.4971  143.5524  170.8715 H       1  UNL1        0.1189
     43 H         139.8820  143.8906  171.7329 H       1  UNL1        0.1189
@<TRIPOS>BOND
     1    40    41    1
     2    41    39    1
     3    39    38    1
     4    38    37    1
     5    37    26    1
     6    26    27   ar
     7    27    28   ar
     8    28    29   ar
     9    29    30   ar
    10    30    31   ar
    11    31    32   ar
    12    32    33    1
    13    32    34   ar
    14    34    25    1
    15    25    24    1
    16    24     1    1
    17     1     2    1
    18     2     3    1
    19     3     4    1
    20     4     9    1
    21     9    11    1
    22    11    12    1
    23    12    13   ar
    24    13    14   ar
    25    14    15   ar
    26    15    16   ar
    27    16    17   ar
    28    16    18    1
    29    18    19   am
    30    19    20    2
    31    19    21    1
    32    21    22    1
    33     4     5    1
    34     5     6    1
    35     4     7    1
    36     7     8    1
    37    34    35   ar
    38    35    36   ar
    39    36    26   ar
    40    35    29   ar
    41     6     1    1
    42     8     1    1
    43    17    12   ar
    44    22    15    1
    45    40    42    1
    46    40    43    1
    47     9    10    1
    48    18    23    1
@<TRIPOS>MOLECULE
*****
 43 48 0 0 0
SMALL
GASTEIGER

@<TRIPOS>ATOM
      1 C         137.9669  142.7786  163.7427 C.3     1  UNL1        0.0932
      2 C         137.8074  142.6188  162.2598 C.3     1  UNL1        0.0286
      3 C         137.7461  141.2473  161.6556 C.3     1  UNL1        0.0193
      4 C         137.8443  140.0355  162.5342 C.3     1  UNL1        0.0700
      5 C         138.0039  140.1953  164.0171 C.3     1  UNL1        0.0193
      6 C         138.0652  141.5669  164.6214 C.3     1  UNL1        0.0286
      7 C         137.8829  140.7665  162.9111 C.3     1  UNL1        0.1562
      8 O         137.9384  142.0067  163.4575 O.3     1  UNL1       -0.3572
      9 N         137.7830  138.6640  161.9300 N.3     1  UNL1       -0.2926
     10 H         137.0664  138.6935  161.2047 H       1  UNL1        0.1236
     11 C         139.0076  138.0645  161.3047 C.3     1  UNL1        0.1152
     12 C         140.3628  138.3614  161.8749 C.ar    1  UNL1        0.0765
     13 C         141.4293  138.9560  161.0036 C.ar    1  UNL1        0.0193
     14 C         142.7845  139.2529  161.5738 C.ar    1  UNL1        0.0411
     15 C         143.0733  138.9552  163.0153 C.ar    1  UNL1        0.1708
     16 C         142.0069  138.3606  163.8866 C.ar    1  UNL1        0.1682
     17 N         140.6516  138.0636  163.3164 N.ar    1  UNL1       -0.2304
     18 N         142.2958  138.0628  165.3281 N.am    1  UNL1       -0.2639
     19 C         143.6510  138.3597  165.8983 C.2     1  UNL1        0.2718
     20 O         143.9399  138.0620  167.3398 O.2     1  UNL1       -0.2707
     21 C         144.7175  138.9544  165.0270 C.3     1  UNL1        0.2898
     22 O         144.4286  139.2521  163.5855 O.3     1  UNL1       -0.4628
     23 H         141.5959  137.6725  165.9000 H       1  UNL1        0.1565
     24 C         138.0283  144.1501  164.3469 C.3     1  UNL1        0.0320
     25 C         139.3558  144.8094  164.5777 C.3     1  UNL1        0.0327
     26 C         143.2134  142.6869  165.5073 C.ar    1  UNL1        0.2249
     27 C         144.2882  142.5940  164.4652 C.ar    1  UNL1        0.0593
     28 C         144.0772  143.2085  163.1132 C.ar    1  UNL1        0.0254
     29 C         142.7913  143.9160  162.8033 C.ar    1  UNL1        0.0990
     30 N         142.5803  144.5305  161.4513 N.ar    1  UNL1       -0.2400
     31 C         141.2945  145.2380  161.1415 C.ar    1  UNL1        0.1281
     32 C         140.2196  145.3309  162.1836 C.ar    1  UNL1        0.1566
     33 F         138.9337  146.0384  161.8738 F       1  UNL1       -0.2028
     34 C         140.4306  144.7164  163.5356 C.ar    1  UNL1        0.0261
     35 C         141.7165  144.0089  163.8454 C.ar    1  UNL1        0.1002
     36 N         141.9275  143.3944  165.1974 N.ar    1  UNL1       -0.2104
     37 O         143.4244  142.0724  166.8593 O.3     1  UNL1       -0.4602
     38 C         142.2914  142.0112  167.8404 C.3     1  UNL1        0.2085
     39 C         141.8296  140.6864  168.3711 C.3     1  UNL1        0.0642
     40 N         140.0763  139.5246  166.8458 N.3     1  UNL1       -0.3210
     41 C         140.4225  140.2288  168.1241 C.3     1  UNL1        0.0690
     42 H         139.0844  139.2869  166.8464 H       1  UNL1        0.1189
     43 H         140.6303  138.6718  166.7666 H       1  UNL1        0.1189
@<TRIPOS>BOND
     1    40    41    1
     2    41    39    1
     3    39    38    1
     4    38    37    1
     5    37    26    1
     6    26    27   ar
     7    27    28   ar
     8    28    29   ar
     9    29    30   ar
    10    30    31   ar
    11    31    32   ar
    12    32    33    1
    13    32    34   ar
    14    34    25    1
    15    25    24    1
    16    24     1    1
    17     1     2    1
    18     2     3    1
    19     3     4    1
    20     4     9    1
    21     9    11    1
    22    11    12    1
    23    12    13   ar
    24    13    14   ar
    25    14    15   ar
    26    15    16   ar
    27    16    17   ar
    28    16    18    1
    29    18    19   am
    30    19    20    2
    31    19    21    1
    32    21    22    1
    33     4     5    1
    34     5     6    1
    35     4     7    1
    36     7     8    1
    37    34    35   ar
    38    35    36   ar
    39    36    26   ar
    40    35    29   ar
    41     6     1    1
    42     8     1    1
    43    17    12   ar
    44    22    15    1
    45    40    42    1
    46    40    43    1
    47     9    10    1
    48    18    23    1
@<TRIPOS>MOLECULE
*****
 43 48 0 0 0
SMALL
GASTEIGER

@<TRIPOS>ATOM
      1 C         138.3274  139.9999  163.9077 C.3     1  UNL1        0.0932
      2 C         138.1357  141.0961  164.9135 C.3     1  UNL1        0.0286
      3 C         137.9070  142.5051  164.4528 C.3     1  UNL1        0.0193
      4 C         137.8700  142.8180  162.9862 C.3     1  UNL1        0.0700
      5 C         138.0617  141.7218  161.9804 C.3     1  UNL1        0.0193
      6 C         138.2904  140.3128  162.4412 C.3     1  UNL1        0.0286
      7 C         137.9983  142.0308  163.1906 C.3     1  UNL1        0.1562
      8 O         138.2051  140.7567  163.6072 O.3     1  UNL1       -0.3572
      9 N         137.6413  144.2271  162.5254 N.3     1  UNL1       -0.2926
     10 H         136.8692  144.5966  163.0802 H       1  UNL1        0.1236
     11 C         138.7520  145.2320  162.6058 C.3     1  UNL1        0.1152
     12 C         140.1799  144.7796  162.5266 C.ar    1  UNL1        0.0765
     13 C         141.1080  145.0202  163.6804 C.ar    1  UNL1        0.0193
     14 C         142.5359  144.5679  163.6012 C.ar    1  UNL1        0.0411
     15 C         143.0359  143.8749  162.3684 C.ar    1  UNL1        0.1708
     16 C         142.1080  143.6343  161.2148 C.ar    1  UNL1        0.1682
     17 N         140.6799  144.0867  161.2938 N.ar    1  UNL1       -0.2304
     18 N         142.6080  142.9413  159.9820 N.am    1  UNL1       -0.2639
     19 C         144.0359  142.4889  159.9029 C.2     1  UNL1        0.2718
     20 O         144.5359  141.7960  158.6701 O.2     1  UNL1       -0.2707
     21 C         144.9639  142.7295  161.0566 C.3     1  UNL1        0.2898
     22 O         144.4639  143.4225  162.2894 O.3     1  UNL1       -0.4628
     23 H         141.9989  142.7834  159.2248 H       1  UNL1        0.1565
     24 C         138.5561  138.5909  164.3684 C.3     1  UNL1        0.0320
     25 C         139.8462  138.2210  165.0385 C.3     1  UNL1        0.0327
     26 C         141.7781  141.6688  167.1903 C.ar    1  UNL1        0.2249
     27 C         143.0733  142.2351  166.6884 C.ar    1  UNL1        0.0593
     28 C         143.7244  141.6522  165.4693 C.ar    1  UNL1        0.0254
     29 C         143.0805  140.5029  164.7521 C.ar    1  UNL1        0.0990
     30 N         143.7316  139.9200  163.5330 N.ar    1  UNL1       -0.2400
     31 C         143.0877  138.7708  162.8157 C.ar    1  UNL1        0.1281
     32 C         141.7925  138.2044  163.3176 C.ar    1  UNL1        0.1566
     33 F         141.1485  137.0551  162.6003 F       1  UNL1       -0.2028
     34 C         141.1413  138.7873  164.5367 C.ar    1  UNL1        0.0261
     35 C         141.7854  139.9366  165.2539 C.ar    1  UNL1        0.1002
     36 N         141.1342  140.5195  166.4730 N.ar    1  UNL1       -0.2104
     37 O         141.1270  142.2517  168.4094 O.3     1  UNL1       -0.4602
     38 C         141.3525  141.6238  169.7528 C.3     1  UNL1        0.2085
     39 C         141.2799  140.1334  169.9059 C.3     1  UNL1        0.0642
     40 N         143.5195  139.5883  171.1047 N.3     1  UNL1       -0.3210
     41 C         142.5411  139.3266  169.9983 C.3     1  UNL1        0.0690
     42 H         144.3127  138.9535  171.0144 H       1  UNL1        0.1189
     43 H         143.0636  139.4369  172.0046 H       1  UNL1        0.1189
@<TRIPOS>BOND
     1    40    41    1
     2    41    39    1
     3    39    38    1
     4    38    37    1
     5    37    26    1
     6    26    27   ar
     7    27    28   ar
     8    28    29   ar
     9    29    30   ar
    10    30    31   ar
    11    31    32   ar
    12    32    33    1
    13    32    34   ar
    14    34    25    1
    15    25    24    1
    16    24     1    1
    17     1     2    1
    18     2     3    1
    19     3     4    1
    20     4     9    1
    21     9    11    1
    22    11    12    1
    23    12    13   ar
    24    13    14   ar
    25    14    15   ar
    26    15    16   ar
    27    16    17   ar
    28    16    18    1
    29    18    19   am
    30    19    20    2
    31    19    21    1
    32    21    22    1
    33     4     5    1
    34     5     6    1
    35     4     7    1
    36     7     8    1
    37    34    35   ar
    38    35    36   ar
    39    36    26   ar
    40    35    29   ar
    41     6     1    1
    42     8     1    1
    43    17    12   ar
    44    22    15    1
    45    40    42    1
    46    40    43    1
    47     9    10    1
    48    18    23    1
@<TRIPOS>MOLECULE
*****
 43 48 0 0 0
SMALL
GASTEIGER

@<TRIPOS>ATOM
      1 C         142.2212  138.3200  162.5499 C.3     1  UNL1        0.0932
      2 C         142.8949  138.9874  161.3877 C.3     1  UNL1        0.0286
      3 C         144.0771  139.8813  161.6183 C.3     1  UNL1        0.0193
      4 C         144.5856  140.1080  163.0112 C.3     1  UNL1        0.0700
      5 C         143.9119  139.4407  164.1734 C.3     1  UNL1        0.0193
      6 C         142.7296  138.5467  163.9427 C.3     1  UNL1        0.0286
      7 C         143.9347  139.6096  162.9344 C.3     1  UNL1        0.1562
      8 O         142.8657  138.8013  162.7259 O.3     1  UNL1       -0.3572
      9 N         145.7678  141.0020  163.2418 N.3     1  UNL1       -0.2926
     10 H         146.2449  141.0963  162.3453 H       1  UNL1        0.1236
     11 C         145.5660  142.3901  163.7731 C.3     1  UNL1        0.1152
     12 C         144.2844  143.1194  163.4986 C.ar    1  UNL1        0.0765
     13 C         143.3583  143.4599  164.6284 C.ar    1  UNL1        0.0193
     14 C         142.0766  144.1892  164.3538 C.ar    1  UNL1        0.0411
     15 C         141.7209  144.5779  162.9494 C.ar    1  UNL1        0.1708
     16 C         142.6469  144.2374  161.8196 C.ar    1  UNL1        0.1682
     17 N         143.9287  143.5081  162.0942 N.ar    1  UNL1       -0.2304
     18 N         142.2913  144.6262  160.4152 N.am    1  UNL1       -0.2639
     19 C         141.0096  145.3555  160.1406 C.2     1  UNL1        0.2718
     20 O         140.6539  145.7442  158.7362 O.2     1  UNL1       -0.2707
     21 C         140.0835  145.6960  161.2705 C.3     1  UNL1        0.2898
     22 O         140.4392  145.3072  162.6749 O.3     1  UNL1       -0.4628
     23 H         142.8990  144.4027  159.6737 H       1  UNL1        0.1565
     24 C         141.0390  137.4261  162.3193 C.3     1  UNL1        0.0320
     25 C         139.6624  138.0137  162.2201 C.3     1  UNL1        0.0327
     26 C         138.3343  142.2338  161.3978 C.ar    1  UNL1        0.2249
     27 C         137.7989  143.0823  162.5128 C.ar    1  UNL1        0.0593
     28 C         137.7062  142.5241  163.9020 C.ar    1  UNL1        0.0254
     29 C         138.1489  141.1174  164.1761 C.ar    1  UNL1        0.0990
     30 N         138.0561  140.5592  165.5653 N.ar    1  UNL1       -0.2400
     31 C         138.4988  139.1525  165.8394 C.ar    1  UNL1        0.1281
     32 C         139.0342  138.3039  164.7244 C.ar    1  UNL1        0.1566
     33 F         139.4769  136.8972  164.9985 F       1  UNL1       -0.2028
     34 C         139.1270  138.8621  163.3352 C.ar    1  UNL1        0.0261
     35 C         138.6843  140.2689  163.0611 C.ar    1  UNL1        0.1002
     36 N         138.7770  140.8271  161.6719 N.ar    1  UNL1       -0.2104
     37 O         138.4270  142.7920  160.0086 O.3     1  UNL1       -0.4602
     38 C         138.2123  141.8965  158.8246 C.3     1  UNL1        0.2085
     39 C         139.3811  141.4626  157.9906 C.3     1  UNL1        0.0642
     40 N         141.3342  141.7084  159.6862 N.3     1  UNL1       -0.3210
     41 C         140.7606  141.9500  158.3214 C.3     1  UNL1        0.0690
     42 H         142.2731  142.1039  159.7353 H       1  UNL1        0.1189
     43 H         141.3783  140.7050  159.8637 H       1  UNL1        0.1189
@<TRIPOS>BOND
     1    40    41    1
     2    41    39    1
     3    39    38    1
     4    38    37    1
     5    37    26    1
     6    26    27   ar
     7    27    28   ar
     8    28    29   ar
     9    29    30   ar
    10    30    31   ar
    11    31    32   ar
    12    32    33    1
    13    32    34   ar
    14    34    25    1
    15    25    24    1
    16    24     1    1
    17     1     2    1
    18     2     3    1
    19     3     4    1
    20     4     9    1
    21     9    11    1
    22    11    12    1
    23    12    13   ar
    24    13    14   ar
    25    14    15   ar
    26    15    16   ar
    27    16    17   ar
    28    16    18    1
    29    18    19   am
    30    19    20    2
    31    19    21    1
    32    21    22    1
    33     4     5    1
    34     5     6    1
    35     4     7    1
    36     7     8    1
    37    34    35   ar
    38    35    36   ar
    39    36    26   ar
    40    35    29   ar
    41     6     1    1
    42     8     1    1
    43    17    12   ar
    44    22    15    1
    45    40    42    1
    46    40    43    1
    47     9    10    1
    48    18    23    1
