@<TRIPOS>MOLECULE
*****
 38 42 0 0 0
SMALL
GASTEIGER

@<TRIPOS>ATOM
      1 C         139.8904  143.8717  159.8783 C.3     1  UNL1        0.2358
      2 C         140.7065  144.9796  160.4754 C.3     1  UNL1        0.1700
      3 O         141.8396  145.5799  159.6971 O.3     1  UNL1       -0.3793
      4 H         141.9081  145.1406  158.8349 H       1  UNL1        0.2106
      5 C         140.3896  145.4872  161.8509 C.3     1  UNL1        0.1056
      6 N         140.5369  144.5810  163.0371 N.3     1  UNL1       -0.2703
      7 C         139.4551  144.5216  164.0745 C.3     1  UNL1        0.0758
      8 C         139.6024  143.6154  165.2607 C.3     1  UNL1        0.0577
      9 C         140.8315  142.7686  165.4095 C.3     1  UNL1        0.1399
     10 C         141.9133  142.8280  164.3722 C.3     1  UNL1        0.0577
     11 C         141.7660  143.7341  163.1860 C.3     1  UNL1        0.0758
     12 C         141.9975  141.8682  165.6918 C.3     1  UNL1        0.0695
     13 C         141.7252  141.1468  166.9785 C.ar    1  UNL1        0.0161
     14 C         142.5199  140.1347  167.7493 C.ar    1  UNL1        0.0102
     15 C         141.9803  139.5772  169.0331 C.ar    1  UNL1        0.0576
     16 CL        142.7749  138.5651  169.8039 Cl      1  UNL1       -0.0823
     17 C         140.6461  140.0318  169.5461 C.ar    1  UNL1        0.0145
     18 C         139.8514  141.0440  168.7753 C.ar    1  UNL1        0.0374
     19 C         140.3909  141.6014  167.4915 C.ar    1  UNL1        0.1343
     20 O         139.8386  142.6038  166.5218 O.3     1  UNL1       -0.4825
     21 O         140.3299  142.4465  160.0377 O.3     1  UNL1       -0.4725
     22 C         140.4863  140.3925  161.6210 C.ar    1  UNL1        0.0877
     23 C         139.8994  139.5440  162.7098 C.ar    1  UNL1        0.0107
     24 C         138.5693  139.9010  163.3042 C.ar    1  UNL1        0.0370
     25 C         137.8260  141.1064  162.8098 C.ar    1  UNL1        0.1367
     26 O         136.4959  141.4634  163.4042 O.3     1  UNL1       -0.5054
     27 C         138.4129  141.9550  161.7209 C.ar    1  UNL1        0.0736
     28 C         139.7430  141.5980  161.1265 C.ar    1  UNL1        0.1460
     29 H         136.1293  140.9333  164.0844 H       1  UNL1        0.2922
     30 O         143.0818  140.4198  161.7347 O.2     1  UNL1       -0.2698
     31 C         141.8164  140.0356  161.0265 C.2     1  UNL1        0.2520
     32 N         141.8812  139.2945  159.7240 N.am    1  UNL1       -0.2734
     33 C         140.7071  138.8461  158.9054 C.3     1  UNL1        0.0964
     34 C         141.2317  138.1462  157.6869 C.3     1  UNL1        0.0525
     35 C         142.7303  138.1619  157.7525 C.3     1  UNL1        0.1320
     36 O         143.6635  137.5715  156.7373 O.3     1  UNL1       -0.3827
     37 C         143.1317  138.8716  159.0115 C.3     1  UNL1        0.1228
     38 H         143.1488  137.1709  156.0193 H       1  UNL1        0.2104
@<TRIPOS>BOND
     1    30    31    2
     2    31    22    1
     3    22    23   ar
     4    23    24   ar
     5    24    25   ar
     6    25    26    1
     7    25    27   ar
     8    27    28   ar
     9    28    21    1
    10    21     1    1
    11     1     2    1
    12     2     3    1
    13     2     5    1
    14     5     6    1
    15     6     7    1
    16     7     8    1
    17     8     9    1
    18     9    10    1
    19    10    11    1
    20     9    12    1
    21    12    13    1
    22    13    14   ar
    23    14    15   ar
    24    15    16    1
    25    15    17   ar
    26    17    18   ar
    27    18    19   ar
    28    19    20    1
    29    31    32   am
    30    32    33    1
    31    33    34    1
    32    34    35    1
    33    35    36    1
    34    35    37    1
    35    28    22   ar
    36    11     6    1
    37    19    13   ar
    38    37    32    1
    39    20     9    1
    40    26    29    1
    41     3     4    1
    42    36    38    1
@<TRIPOS>MOLECULE
*****
 38 42 0 0 0
SMALL
GASTEIGER

@<TRIPOS>ATOM
      1 C         138.7603  139.3070  160.8602 C.3     1  UNL1        0.2358
      2 C         138.6165  138.1032  161.7435 C.3     1  UNL1        0.1700
      3 O         137.3497  137.3004  161.7168 O.3     1  UNL1       -0.3793
      4 H         136.7320  137.6922  161.0798 H       1  UNL1        0.2106
      5 C         139.7395  137.7022  162.6535 C.3     1  UNL1        0.1056
      6 N         140.0509  138.5254  163.8682 N.3     1  UNL1       -0.2703
      7 C         138.9526  138.9128  164.8135 C.3     1  UNL1        0.0758
      8 C         139.2641  139.7360  166.0281 C.3     1  UNL1        0.0577
      9 C         140.6739  140.1718  166.2974 C.3     1  UNL1        0.1399
     10 C         141.7722  139.7845  165.3521 C.3     1  UNL1        0.0577
     11 C         141.4607  138.9613  164.1375 C.3     1  UNL1        0.0758
     12 C         142.0285  140.6784  166.6955 C.3     1  UNL1        0.0695
     13 C         141.8773  141.4527  167.9714 C.ar    1  UNL1        0.0161
     14 C         142.8710  142.1796  168.8281 C.ar    1  UNL1        0.0102
     15 C         142.4167  142.8785  170.0752 C.ar    1  UNL1        0.0576
     16 CL        143.4105  143.6054  170.9319 Cl      1  UNL1       -0.0823
     17 C         140.9687  142.8505  170.4655 C.ar    1  UNL1        0.0145
     18 C         139.9749  142.1236  169.6088 C.ar    1  UNL1        0.0374
     19 C         140.4292  141.4246  168.3617 C.ar    1  UNL1        0.1343
     20 O         139.6855  140.6331  167.3272 O.3     1  UNL1       -0.4825
     21 O         139.2936  140.5909  161.4231 O.3     1  UNL1       -0.4725
     22 C         141.0525  142.4871  161.1763 C.ar    1  UNL1        0.0877
     23 C         142.4457  142.9311  160.8421 C.ar    1  UNL1        0.0107
     24 C         143.4733  141.9230  160.4203 C.ar    1  UNL1        0.0370
     25 C         143.1077  140.4709  160.3328 C.ar    1  UNL1        0.1367
     26 O         144.1352  139.4628  159.9111 O.3     1  UNL1       -0.5054
     27 C         141.7144  140.0268  160.6671 C.ar    1  UNL1        0.0736
     28 C         140.6868  141.0349  161.0889 C.ar    1  UNL1        0.1460
     29 H         145.0055  139.7402  159.7023 H       1  UNL1        0.2922
     30 O         139.2253  144.2292  160.5627 O.2     1  UNL1       -0.2698
     31 C         140.0250  143.4952  161.5981 C.2     1  UNL1        0.2520
     32 N         139.7970  143.7693  163.0551 N.am    1  UNL1       -0.2734
     33 C         140.5165  143.1167  164.1980 C.3     1  UNL1        0.0964
     34 C         139.9738  143.6881  165.4743 C.3     1  UNL1        0.0525
     35 C         138.9188  144.6940  165.1201 C.3     1  UNL1        0.1320
     36 O         138.1143  145.5069  166.0906 O.3     1  UNL1       -0.3827
     37 C         138.8096  144.7441  163.6249 C.3     1  UNL1        0.1228
     38 H         138.3796  145.2842  166.9967 H       1  UNL1        0.2104
@<TRIPOS>BOND
     1    30    31    2
     2    31    22    1
     3    22    23   ar
     4    23    24   ar
     5    24    25   ar
     6    25    26    1
     7    25    27   ar
     8    27    28   ar
     9    28    21    1
    10    21     1    1
    11     1     2    1
    12     2     3    1
    13     2     5    1
    14     5     6    1
    15     6     7    1
    16     7     8    1
    17     8     9    1
    18     9    10    1
    19    10    11    1
    20     9    12    1
    21    12    13    1
    22    13    14   ar
    23    14    15   ar
    24    15    16    1
    25    15    17   ar
    26    17    18   ar
    27    18    19   ar
    28    19    20    1
    29    31    32   am
    30    32    33    1
    31    33    34    1
    32    34    35    1
    33    35    36    1
    34    35    37    1
    35    28    22   ar
    36    11     6    1
    37    19    13   ar
    38    37    32    1
    39    20     9    1
    40    26    29    1
    41     3     4    1
    42    36    38    1
@<TRIPOS>MOLECULE
*****
 38 42 0 0 0
SMALL
GASTEIGER

@<TRIPOS>ATOM
      1 C         141.6547  139.0392  160.0598 C.3     1  UNL1        0.2358
      2 C         140.1862  138.7499  160.1593 C.3     1  UNL1        0.1700
      3 O         139.2674  139.1399  159.0396 O.3     1  UNL1       -0.3793
      4 H         139.7798  139.5649  158.3341 H       1  UNL1        0.2106
      5 C         139.6366  138.0706  161.3785 C.3     1  UNL1        0.1056
      6 N         139.7038  138.7537  162.7122 N.3     1  UNL1       -0.2703
      7 C         139.4219  137.9803  163.9661 C.3     1  UNL1        0.0758
      8 C         139.4892  138.6634  165.2998 C.3     1  UNL1        0.0577
      9 C         139.8383  140.1201  165.3796 C.3     1  UNL1        0.1399
     10 C         140.1202  140.8935  164.1257 C.3     1  UNL1        0.0577
     11 C         140.0530  140.2104  162.7920 C.3     1  UNL1        0.0758
     12 C         140.1726  141.5633  165.6151 C.3     1  UNL1        0.0695
     13 C         140.1240  141.8151  167.0931 C.ar    1  UNL1        0.0161
     14 C         140.3644  143.0505  167.9092 C.ar    1  UNL1        0.0102
     15 C         140.2405  142.9984  169.4031 C.ar    1  UNL1        0.0576
     16 CL        140.4809  144.2337  170.2192 Cl      1  UNL1       -0.0823
     17 C         139.8762  141.7109  170.0810 C.ar    1  UNL1        0.0145
     18 C         139.6357  140.4754  169.2649 C.ar    1  UNL1        0.0374
     19 C         139.7597  140.5275  167.7710 C.ar    1  UNL1        0.1343
     20 O         139.5831  139.4800  166.7120 O.3     1  UNL1       -0.4825
     21 O         142.1485  140.4527  160.1500 O.3     1  UNL1       -0.4725
     22 C         143.4854  142.2798  161.4246 C.ar    1  UNL1        0.0877
     23 C         144.4686  142.6642  162.4901 C.ar    1  UNL1        0.0107
     24 C         145.0984  141.6060  163.3466 C.ar    1  UNL1        0.0370
     25 C         144.7448  140.1633  163.1376 C.ar    1  UNL1        0.1367
     26 O         145.3745  139.1051  163.9940 O.3     1  UNL1       -0.5054
     27 C         143.7615  139.7789  162.0720 C.ar    1  UNL1        0.0736
     28 C         143.1317  140.8371  161.2155 C.ar    1  UNL1        0.1460
     29 H         145.9887  139.3452  164.6596 H       1  UNL1        0.2922
     30 O         143.3290  143.5428  159.1595 O.2     1  UNL1       -0.2698
     31 C         142.8556  143.3381  160.5681 C.2     1  UNL1        0.2520
     32 N         141.7526  144.1916  161.1201 N.am    1  UNL1       -0.2734
     33 C         141.1773  144.1034  162.5026 C.3     1  UNL1        0.0964
     34 C         140.1003  145.1404  162.6236 C.3     1  UNL1        0.0525
     35 C         140.0100  145.8696  161.3158 C.3     1  UNL1        0.1320
     36 O         139.0646  146.9887  160.9938 O.3     1  UNL1       -0.3827
     37 C         141.0312  145.2832  160.3867 C.3     1  UNL1        0.1228
     38 H         138.5100  147.1762  161.7672 H       1  UNL1        0.2104
@<TRIPOS>BOND
     1    30    31    2
     2    31    22    1
     3    22    23   ar
     4    23    24   ar
     5    24    25   ar
     6    25    26    1
     7    25    27   ar
     8    27    28   ar
     9    28    21    1
    10    21     1    1
    11     1     2    1
    12     2     3    1
    13     2     5    1
    14     5     6    1
    15     6     7    1
    16     7     8    1
    17     8     9    1
    18     9    10    1
    19    10    11    1
    20     9    12    1
    21    12    13    1
    22    13    14   ar
    23    14    15   ar
    24    15    16    1
    25    15    17   ar
    26    17    18   ar
    27    18    19   ar
    28    19    20    1
    29    31    32   am
    30    32    33    1
    31    33    34    1
    32    34    35    1
    33    35    36    1
    34    35    37    1
    35    28    22   ar
    36    11     6    1
    37    19    13   ar
    38    37    32    1
    39    20     9    1
    40    26    29    1
    41     3     4    1
    42    36    38    1
@<TRIPOS>MOLECULE
*****
 38 42 0 0 0
SMALL
GASTEIGER

@<TRIPOS>ATOM
      1 C         139.3473  138.2465  160.8078 C.3     1  UNL1        0.2358
      2 C         138.3974  139.3872  160.5914 C.3     1  UNL1        0.1700
      3 O         138.0236  139.7978  159.1980 O.3     1  UNL1       -0.3793
      4 H         138.4801  139.2279  158.5595 H       1  UNL1        0.2106
      5 C         137.8214  140.1171  161.7684 C.3     1  UNL1        0.1056
      6 N         138.6401  140.2989  163.0121 N.3     1  UNL1       -0.2703
      7 C         138.4079  139.4119  164.1992 C.3     1  UNL1        0.0758
      8 C         139.2266  139.5937  165.4428 C.3     1  UNL1        0.0577
      9 C         140.2774  140.6625  165.4994 C.3     1  UNL1        0.1399
     10 C         140.5096  141.5496  164.3124 C.3     1  UNL1        0.0577
     11 C         139.6910  141.3678  163.0687 C.3     1  UNL1        0.0758
     12 C         141.3579  141.6830  165.7024 C.3     1  UNL1        0.0695
     13 C         141.9077  141.5069  167.0870 C.ar    1  UNL1        0.0161
     14 C         142.9870  142.2290  167.8377 C.ar    1  UNL1        0.0102
     15 C         143.3256  141.8218  169.2411 C.ar    1  UNL1        0.0576
     16 CL        144.4050  142.5439  169.9918 Cl      1  UNL1       -0.0823
     17 C         142.5849  140.6926  169.8938 C.ar    1  UNL1        0.0145
     18 C         141.5054  139.9705  169.1431 C.ar    1  UNL1        0.0374
     19 C         141.1668  140.3776  167.7397 C.ar    1  UNL1        0.1343
     20 O         140.1593  139.8558  166.7586 O.3     1  UNL1       -0.4825
     21 O         140.8093  138.4238  160.5233 O.3     1  UNL1       -0.4725
     22 C         142.9892  139.5108  161.4269 C.ar    1  UNL1        0.0877
     23 C         143.9483  139.7553  162.5540 C.ar    1  UNL1        0.0107
     24 C         143.6866  139.1573  163.9046 C.ar    1  UNL1        0.0370
     25 C         142.4659  138.3148  164.1280 C.ar    1  UNL1        0.1367
     26 O         142.2042  137.7168  165.4786 O.3     1  UNL1       -0.5054
     27 C         141.5067  138.0703  163.0009 C.ar    1  UNL1        0.0736
     28 C         141.7684  138.6682  161.6504 C.ar    1  UNL1        0.1460
     29 H         142.8034  137.8696  166.1826 H       1  UNL1        0.2922
     30 O         143.7793  139.2502  158.9657 O.2     1  UNL1       -0.2698
     31 C         143.2509  140.1087  160.0764 C.2     1  UNL1        0.2520
     32 N         142.9841  141.5652  159.8366 N.am    1  UNL1       -0.2734
     33 C         142.4582  142.5429  160.8452 C.3     1  UNL1        0.0964
     34 C         142.3454  143.8816  160.1781 C.3     1  UNL1        0.0525
     35 C         142.8016  143.7313  158.7570 C.3     1  UNL1        0.1320
     36 O         142.8539  144.8212  157.7278 O.3     1  UNL1       -0.3827
     37 C         143.1963  142.2996  158.5460 C.3     1  UNL1        0.1228
     38 H         142.5445  145.6522  158.1209 H       1  UNL1        0.2104
@<TRIPOS>BOND
     1    30    31    2
     2    31    22    1
     3    22    23   ar
     4    23    24   ar
     5    24    25   ar
     6    25    26    1
     7    25    27   ar
     8    27    28   ar
     9    28    21    1
    10    21     1    1
    11     1     2    1
    12     2     3    1
    13     2     5    1
    14     5     6    1
    15     6     7    1
    16     7     8    1
    17     8     9    1
    18     9    10    1
    19    10    11    1
    20     9    12    1
    21    12    13    1
    22    13    14   ar
    23    14    15   ar
    24    15    16    1
    25    15    17   ar
    26    17    18   ar
    27    18    19   ar
    28    19    20    1
    29    31    32   am
    30    32    33    1
    31    33    34    1
    32    34    35    1
    33    35    36    1
    34    35    37    1
    35    28    22   ar
    36    11     6    1
    37    19    13   ar
    38    37    32    1
    39    20     9    1
    40    26    29    1
    41     3     4    1
    42    36    38    1
@<TRIPOS>MOLECULE
*****
 38 42 0 0 0
SMALL
GASTEIGER

@<TRIPOS>ATOM
      1 C         142.6496  139.9650  159.8789 C.3     1  UNL1        0.2358
      2 C         143.1980  138.5808  160.0617 C.3     1  UNL1        0.1700
      3 O         143.0530  137.5660  158.9667 O.3     1  UNL1       -0.3793
      4 H         142.5847  137.9645  158.2165 H       1  UNL1        0.2106
      5 C         143.8913  138.2115  161.3396 C.3     1  UNL1        0.1056
      6 N         143.3122  138.6355  162.6568 N.3     1  UNL1       -0.2703
      7 C         141.8807  138.3265  162.9810 C.3     1  UNL1        0.0758
      8 C         141.3016  138.7505  164.2981 C.3     1  UNL1        0.0577
      9 C         142.1541  139.4835  165.2910 C.3     1  UNL1        0.1399
     10 C         143.5856  139.7926  164.9668 C.3     1  UNL1        0.0577
     11 C         144.1647  139.3686  163.6497 C.3     1  UNL1        0.0758
     12 C         142.8806  140.2195  166.3776 C.3     1  UNL1        0.0695
     13 C         141.9223  140.4369  167.5110 C.ar    1  UNL1        0.0161
     14 C         142.0802  141.1049  168.8447 C.ar    1  UNL1        0.0102
     15 C         140.9193  141.1713  169.7924 C.ar    1  UNL1        0.0576
     16 CL        141.0772  141.8393  171.1261 Cl      1  UNL1       -0.0823
     17 C         139.6006  140.5696  169.4063 C.ar    1  UNL1        0.0145
     18 C         139.4427  139.9016  168.0726 C.ar    1  UNL1        0.0374
     19 C         140.6036  139.8352  167.1249 C.ar    1  UNL1        0.1343
     20 O         140.7468  139.2460  165.7529 O.3     1  UNL1       -0.4825
     21 O         141.2468  140.1566  159.3836 O.3     1  UNL1       -0.4725
     22 C         139.5765  141.2715  161.0320 C.ar    1  UNL1        0.0877
     23 C         138.4232  141.1620  161.9848 C.ar    1  UNL1        0.0107
     24 C         137.7869  139.8283  162.2421 C.ar    1  UNL1        0.0370
     25 C         138.3039  138.6040  161.5466 C.ar    1  UNL1        0.1367
     26 O         137.6677  137.2702  161.8040 O.3     1  UNL1       -0.5054
     27 C         139.4573  138.7134  160.5938 C.ar    1  UNL1        0.0736
     28 C         140.0935  140.0472  160.3364 C.ar    1  UNL1        0.1460
     29 H         136.9472  137.2018  162.3992 H       1  UNL1        0.2922
     30 O         139.7112  143.4726  159.6582 O.2     1  UNL1       -0.2698
     31 C         140.2127  142.6053  160.7746 C.2     1  UNL1        0.2520
     32 N         141.3504  143.0717  161.6336 N.am    1  UNL1       -0.2734
     33 C         141.9562  142.3178  162.7802 C.3     1  UNL1        0.0964
     34 C         143.0623  143.1541  163.3521 C.3     1  UNL1        0.0525
     35 C         143.1402  144.4250  162.5590 C.3     1  UNL1        0.1320
     36 O         144.1064  145.5493  162.7877 O.3     1  UNL1       -0.3827
     37 C         142.0822  144.3740  161.4969 C.3     1  UNL1        0.1228
     38 H         144.6840  145.3320  163.5361 H       1  UNL1        0.2104
@<TRIPOS>BOND
     1    30    31    2
     2    31    22    1
     3    22    23   ar
     4    23    24   ar
     5    24    25   ar
     6    25    26    1
     7    25    27   ar
     8    27    28   ar
     9    28    21    1
    10    21     1    1
    11     1     2    1
    12     2     3    1
    13     2     5    1
    14     5     6    1
    15     6     7    1
    16     7     8    1
    17     8     9    1
    18     9    10    1
    19    10    11    1
    20     9    12    1
    21    12    13    1
    22    13    14   ar
    23    14    15   ar
    24    15    16    1
    25    15    17   ar
    26    17    18   ar
    27    18    19   ar
    28    19    20    1
    29    31    32   am
    30    32    33    1
    31    33    34    1
    32    34    35    1
    33    35    36    1
    34    35    37    1
    35    28    22   ar
    36    11     6    1
    37    19    13   ar
    38    37    32    1
    39    20     9    1
    40    26    29    1
    41     3     4    1
    42    36    38    1
@<TRIPOS>MOLECULE
*****
 38 42 0 0 0
SMALL
GASTEIGER

@<TRIPOS>ATOM
      1 C         139.4029  138.7351  160.8272 C.3     1  UNL1        0.2358
      2 C         138.4277  138.1583  161.8102 C.3     1  UNL1        0.1700
      3 O         136.9565  138.2023  161.5210 O.3     1  UNL1       -0.3793
      4 H         136.8081  138.6332  160.6647 H       1  UNL1        0.2106
      5 C         138.9237  137.5377  163.0825 C.3     1  UNL1        0.1056
      6 N         139.4394  138.4078  164.1902 N.3     1  UNL1       -0.2703
      7 C         138.4827  139.2126  165.0190 C.3     1  UNL1        0.0758
      8 C         138.9984  140.0827  166.1267 C.3     1  UNL1        0.0577
      9 C         140.4708  140.1480  166.4056 C.3     1  UNL1        0.1399
     10 C         141.4275  139.3431  165.5767 C.3     1  UNL1        0.0577
     11 C         140.9118  138.4731  164.4691 C.3     1  UNL1        0.0758
     12 C         141.9085  140.3140  166.7998 C.3     1  UNL1        0.0695
     13 C         141.9656  141.2735  167.9514 C.ar    1  UNL1        0.0161
     14 C         143.1134  141.8135  168.7519 C.ar    1  UNL1        0.0102
     15 C         142.8588  142.7805  169.8700 C.ar    1  UNL1        0.0576
     16 CL        144.0066  143.3206  170.6705 Cl      1  UNL1       -0.0823
     17 C         141.4564  143.2075  170.1875 C.ar    1  UNL1        0.0145
     18 C         140.3085  142.6675  169.3870 C.ar    1  UNL1        0.0374
     19 C         140.5631  141.7005  168.2689 C.ar    1  UNL1        0.1343
     20 O         139.6393  141.0049  167.3136 O.3     1  UNL1       -0.4825
     21 O         139.9916  140.0942  161.0641 O.3     1  UNL1       -0.4725
     22 C         141.8944  141.4147  162.2413 C.ar    1  UNL1        0.0877
     23 C         143.3393  141.5505  162.6205 C.ar    1  UNL1        0.0107
     24 C         144.3263  140.5015  162.2017 C.ar    1  UNL1        0.0370
     25 C         143.8685  139.3168  161.4037 C.ar    1  UNL1        0.1367
     26 O         144.8555  138.2678  160.9850 O.3     1  UNL1       -0.5054
     27 C         142.4235  139.1810  161.0245 C.ar    1  UNL1        0.0736
     28 C         141.4365  140.2300  161.4433 C.ar    1  UNL1        0.1460
     29 H         145.7581  138.3526  161.2218 H       1  UNL1        0.2922
     30 O         140.1122  142.2853  163.9195 O.2     1  UNL1       -0.2698
     31 C         140.9073  142.4637  162.6601 C.2     1  UNL1        0.2520
     32 N         140.7153  143.6911  161.8195 N.am    1  UNL1       -0.2734
     33 C         141.4349  144.0060  160.5416 C.3     1  UNL1        0.0964
     34 C         140.9344  145.3286  160.0415 C.3     1  UNL1        0.0525
     35 C         139.9054  145.8313  161.0104 C.3     1  UNL1        0.1320
     36 O         139.1454  147.1197  160.8998 O.3     1  UNL1       -0.3827
     37 C         139.7701  144.8192  162.1092 C.3     1  UNL1        0.1228
     38 H         139.4202  147.5893  160.0969 H       1  UNL1        0.2104
@<TRIPOS>BOND
     1    30    31    2
     2    31    22    1
     3    22    23   ar
     4    23    24   ar
     5    24    25   ar
     6    25    26    1
     7    25    27   ar
     8    27    28   ar
     9    28    21    1
    10    21     1    1
    11     1     2    1
    12     2     3    1
    13     2     5    1
    14     5     6    1
    15     6     7    1
    16     7     8    1
    17     8     9    1
    18     9    10    1
    19    10    11    1
    20     9    12    1
    21    12    13    1
    22    13    14   ar
    23    14    15   ar
    24    15    16    1
    25    15    17   ar
    26    17    18   ar
    27    18    19   ar
    28    19    20    1
    29    31    32   am
    30    32    33    1
    31    33    34    1
    32    34    35    1
    33    35    36    1
    34    35    37    1
    35    28    22   ar
    36    11     6    1
    37    19    13   ar
    38    37    32    1
    39    20     9    1
    40    26    29    1
    41     3     4    1
    42    36    38    1
@<TRIPOS>MOLECULE
*****
 38 42 0 0 0
SMALL
GASTEIGER

@<TRIPOS>ATOM
      1 C         142.4669  142.5253  160.1016 C.3     1  UNL1        0.2358
      2 C         143.7780  141.7971  160.1271 C.3     1  UNL1        0.1700
      3 O         144.1569  140.8945  158.9905 O.3     1  UNL1       -0.3793
      4 H         143.4489  140.8950  158.3275 H       1  UNL1        0.2106
      5 C         144.7103  141.9714  161.2892 C.3     1  UNL1        0.1056
      6 N         144.2168  141.7439  162.6874 N.3     1  UNL1       -0.2703
      7 C         144.2781  140.3718  163.2904 C.3     1  UNL1        0.0758
      8 C         143.7846  140.1443  164.6885 C.3     1  UNL1        0.0577
      9 C         143.2298  141.2889  165.4835 C.3     1  UNL1        0.1399
     10 C         143.1684  142.6610  164.8805 C.3     1  UNL1        0.0577
     11 C         143.6619  142.8884  163.4824 C.3     1  UNL1        0.0758
     12 C         142.6519  142.3307  166.3950 C.3     1  UNL1        0.0695
     13 C         142.2925  141.6653  167.6905 C.ar    1  UNL1        0.0161
     14 C         141.6872  142.1948  168.9567 C.ar    1  UNL1        0.0102
     15 C         141.4377  141.2713  170.1121 C.ar    1  UNL1        0.0576
     16 CL        140.8324  141.8007  171.3783 Cl      1  UNL1       -0.0823
     17 C         141.7934  139.8183  170.0013 C.ar    1  UNL1        0.0145
     18 C         142.3987  139.2888  168.7350 C.ar    1  UNL1        0.0374
     19 C         142.6482  140.2123  167.5796 C.ar    1  UNL1        0.1343
     20 O         143.2275  139.9797  166.2157 O.3     1  UNL1       -0.4825
     21 O         141.3282  142.0498  160.9545 O.3     1  UNL1       -0.4725
     22 C         139.1279  142.5840  162.2286 C.ar    1  UNL1        0.0877
     23 C         138.2117  143.5780  162.8786 C.ar    1  UNL1        0.0107
     24 C         138.5797  145.0320  162.9045 C.ar    1  UNL1        0.0370
     25 C         139.8639  145.4919  162.2805 C.ar    1  UNL1        0.1367
     26 O         140.2318  146.9458  162.3065 O.3     1  UNL1       -0.5054
     27 C         140.7801  144.4978  161.6304 C.ar    1  UNL1        0.0736
     28 C         140.4121  143.0439  161.6045 C.ar    1  UNL1        0.1460
     29 H         139.6596  147.5667  162.7125 H       1  UNL1        0.2922
     30 O         138.2460  140.5090  160.9376 O.2     1  UNL1       -0.2698
     31 C         138.7599  141.1301  162.2026 C.2     1  UNL1        0.2520
     32 N         138.9058  140.2973  163.4416 N.am    1  UNL1       -0.2734
     33 C         139.4034  140.7770  164.7728 C.3     1  UNL1        0.0964
     34 C         139.3848  139.6147  165.7209 C.3     1  UNL1        0.0525
     35 C         138.8757  138.4166  164.9755 C.3     1  UNL1        0.1320
     36 O         138.6944  137.0387  165.5398 O.3     1  UNL1       -0.3827
     37 C         138.5796  138.8385  163.5669 C.3     1  UNL1        0.1228
     38 H         138.9588  137.0342  166.4731 H       1  UNL1        0.2104
@<TRIPOS>BOND
     1    30    31    2
     2    31    22    1
     3    22    23   ar
     4    23    24   ar
     5    24    25   ar
     6    25    26    1
     7    25    27   ar
     8    27    28   ar
     9    28    21    1
    10    21     1    1
    11     1     2    1
    12     2     3    1
    13     2     5    1
    14     5     6    1
    15     6     7    1
    16     7     8    1
    17     8     9    1
    18     9    10    1
    19    10    11    1
    20     9    12    1
    21    12    13    1
    22    13    14   ar
    23    14    15   ar
    24    15    16    1
    25    15    17   ar
    26    17    18   ar
    27    18    19   ar
    28    19    20    1
    29    31    32   am
    30    32    33    1
    31    33    34    1
    32    34    35    1
    33    35    36    1
    34    35    37    1
    35    28    22   ar
    36    11     6    1
    37    19    13   ar
    38    37    32    1
    39    20     9    1
    40    26    29    1
    41     3     4    1
    42    36    38    1
@<TRIPOS>MOLECULE
*****
 38 42 0 0 0
SMALL
GASTEIGER

@<TRIPOS>ATOM
      1 C         142.4063  143.2373  158.9752 C.3     1  UNL1        0.2358
      2 C         141.5972  144.1913  159.8031 C.3     1  UNL1        0.1700
      3 O         141.8546  145.6664  159.7138 O.3     1  UNL1       -0.3793
      4 H         142.5702  145.8319  159.0803 H       1  UNL1        0.2106
      5 C         140.5308  143.6702  160.7203 C.3     1  UNL1        0.1056
      6 N         140.8967  143.1614  162.0832 N.3     1  UNL1       -0.2703
      7 C         141.4700  144.0983  163.1046 C.3     1  UNL1        0.0758
      8 C         141.8358  143.5895  164.4674 C.3     1  UNL1        0.0577
      9 C         141.6283  142.1436  164.8087 C.3     1  UNL1        0.1399
     10 C         141.0550  141.2067  163.7873 C.3     1  UNL1        0.0577
     11 C         140.6892  141.7155  162.4245 C.3     1  UNL1        0.0758
     12 C         141.4786  140.7315  165.2921 C.3     1  UNL1        0.0695
     13 C         141.9658  140.6727  166.7096 C.ar    1  UNL1        0.0161
     14 C         142.0572  139.5442  167.6935 C.ar    1  UNL1        0.0102
     15 C         142.5994  139.7914  169.0701 C.ar    1  UNL1        0.0576
     16 CL        142.6908  138.6629  170.0540 Cl      1  UNL1       -0.0823
     17 C         143.0502  141.1670  169.4628 C.ar    1  UNL1        0.0145
     18 C         142.9589  142.2956  168.4788 C.ar    1  UNL1        0.0374
     19 C         142.4166  142.0485  167.1023 C.ar    1  UNL1        0.1343
     20 O         142.2080  142.9575  165.9275 O.3     1  UNL1       -0.4825
     21 O         143.8176  142.9145  159.3675 O.3     1  UNL1       -0.4725
     22 C         143.9680  140.5688  160.4744 C.ar    1  UNL1        0.0877
     23 C         144.2351  139.7154  161.6787 C.ar    1  UNL1        0.0107
     24 C         144.6189  140.3543  162.9804 C.ar    1  UNL1        0.0370
     25 C         144.7356  141.8465  163.0779 C.ar    1  UNL1        0.1367
     26 O         145.1194  142.4854  164.3797 O.3     1  UNL1       -0.5054
     27 C         144.4685  142.7000  161.8736 C.ar    1  UNL1        0.0736
     28 C         144.0847  142.0611  160.5718 C.ar    1  UNL1        0.1460
     29 H         145.2862  141.9522  165.1319 H       1  UNL1        0.2922
     30 O         144.5627  139.8967  158.0362 O.2     1  UNL1       -0.2698
     31 C         143.5842  139.9299  159.1727 C.2     1  UNL1        0.2520
     32 N         142.2219  139.3243  159.0073 N.am    1  UNL1       -0.2734
     33 C         141.1434  139.2822  160.0489 C.3     1  UNL1        0.0964
     34 C         139.9539  138.5863  159.4567 C.3     1  UNL1        0.0525
     35 C         140.2972  138.1983  158.0490 C.3     1  UNL1        0.1320
     36 O         139.3969  137.4802  157.0878 O.3     1  UNL1       -0.3827
     37 C         141.6989  138.6544  157.7713 C.3     1  UNL1        0.1228
     38 H         138.5453  137.2998  157.5157 H       1  UNL1        0.2104
@<TRIPOS>BOND
     1    30    31    2
     2    31    22    1
     3    22    23   ar
     4    23    24   ar
     5    24    25   ar
     6    25    26    1
     7    25    27   ar
     8    27    28   ar
     9    28    21    1
    10    21     1    1
    11     1     2    1
    12     2     3    1
    13     2     5    1
    14     5     6    1
    15     6     7    1
    16     7     8    1
    17     8     9    1
    18     9    10    1
    19    10    11    1
    20     9    12    1
    21    12    13    1
    22    13    14   ar
    23    14    15   ar
    24    15    16    1
    25    15    17   ar
    26    17    18   ar
    27    18    19   ar
    28    19    20    1
    29    31    32   am
    30    32    33    1
    31    33    34    1
    32    34    35    1
    33    35    36    1
    34    35    37    1
    35    28    22   ar
    36    11     6    1
    37    19    13   ar
    38    37    32    1
    39    20     9    1
    40    26    29    1
    41     3     4    1
    42    36    38    1
@<TRIPOS>MOLECULE
*****
 38 42 0 0 0
SMALL
GASTEIGER

@<TRIPOS>ATOM
      1 C         139.4687  143.5779  165.2492 C.3     1  UNL1        0.2358
      2 C         138.5184  143.1259  164.1802 C.3     1  UNL1        0.1700
      3 O         137.2943  142.3409  164.5479 O.3     1  UNL1       -0.3793
      4 H         137.2685  142.2134  165.5091 H       1  UNL1        0.2106
      5 C         138.7922  143.4591  162.7436 C.3     1  UNL1        0.1056
      6 N         139.2685  142.3915  161.8037 N.3     1  UNL1       -0.2703
      7 C         140.6519  141.8295  161.9461 C.3     1  UNL1        0.0758
      8 C         141.1282  140.7619  161.0063 C.3     1  UNL1        0.0577
      9 C         140.2210  140.2563  159.9239 C.3     1  UNL1        0.1399
     10 C         138.8376  140.8183  159.7814 C.3     1  UNL1        0.0577
     11 C         138.3614  141.8859  160.7213 C.3     1  UNL1        0.0758
     12 C         139.4311  139.6551  158.7994 C.3     1  UNL1        0.0695
     13 C         140.2927  138.6297  158.1239 C.ar    1  UNL1        0.0161
     14 C         140.0440  137.7214  156.9564 C.ar    1  UNL1        0.0102
     15 C         141.1177  136.7805  156.4960 C.ar    1  UNL1        0.0576
     16 CL        140.8689  135.8723  155.3285 Cl      1  UNL1       -0.0823
     17 C         142.4401  136.7480  157.2031 C.ar    1  UNL1        0.0145
     18 C         142.6889  137.6563  158.3707 C.ar    1  UNL1        0.0374
     19 C         141.6152  138.5971  158.8311 C.ar    1  UNL1        0.1343
     20 O         141.5709  139.6024  159.9435 O.3     1  UNL1       -0.4825
     21 O         140.4911  142.6258  165.7952 O.3     1  UNL1       -0.4725
     22 C         139.6943  140.5891  167.1978 C.ar    1  UNL1        0.0877
     23 C         139.4744  139.9353  168.5298 C.ar    1  UNL1        0.0107
     24 C         139.8314  140.6644  169.7912 C.ar    1  UNL1        0.0370
     25 C         140.4083  142.0471  169.7206 C.ar    1  UNL1        0.1367
     26 O         140.7653  142.7762  170.9820 O.3     1  UNL1       -0.5054
     27 C         140.6282  142.7010  168.3886 C.ar    1  UNL1        0.0736
     28 C         140.2712  141.9720  167.1272 C.ar    1  UNL1        0.1460
     29 H         140.6280  142.3677  171.8140 H       1  UNL1        0.2922
     30 O         137.9047  139.7738  165.4999 O.2     1  UNL1       -0.2698
     31 C         139.3373  139.8601  165.9365 C.2     1  UNL1        0.2520
     32 N         140.4127  139.2175  165.1116 N.am    1  UNL1       -0.2734
     33 C         141.8807  139.2206  165.4198 C.3     1  UNL1        0.0964
     34 C         142.5842  138.4640  164.3324 C.3     1  UNL1        0.0525
     35 C         141.5510  137.9932  163.3521 C.3     1  UNL1        0.1320
     36 O         141.8138  137.1966  162.1086 O.3     1  UNL1       -0.3827
     37 C         140.2090  138.4589  163.8337 C.3     1  UNL1        0.1228
     38 H         142.7655  137.0268  162.0284 H       1  UNL1        0.2104
@<TRIPOS>BOND
     1    30    31    2
     2    31    22    1
     3    22    23   ar
     4    23    24   ar
     5    24    25   ar
     6    25    26    1
     7    25    27   ar
     8    27    28   ar
     9    28    21    1
    10    21     1    1
    11     1     2    1
    12     2     3    1
    13     2     5    1
    14     5     6    1
    15     6     7    1
    16     7     8    1
    17     8     9    1
    18     9    10    1
    19    10    11    1
    20     9    12    1
    21    12    13    1
    22    13    14   ar
    23    14    15   ar
    24    15    16    1
    25    15    17   ar
    26    17    18   ar
    27    18    19   ar
    28    19    20    1
    29    31    32   am
    30    32    33    1
    31    33    34    1
    32    34    35    1
    33    35    36    1
    34    35    37    1
    35    28    22   ar
    36    11     6    1
    37    19    13   ar
    38    37    32    1
    39    20     9    1
    40    26    29    1
    41     3     4    1
    42    36    38    1
