@<TRIPOS>MOLECULE
*****
 39 44 0 0 0
SMALL
GASTEIGER

@<TRIPOS>ATOM
      1 C         144.3627  139.8279  163.4448 C.3     1  UNL1        0.0570
      2 C         144.0116  139.4615  164.8563 C.3     1  UNL1        0.0331
      3 C         142.7607  138.6838  165.1404 C.3     1  UNL1        0.0735
      4 N         141.8610  138.2727  164.0128 N.3     1  UNL1       -0.2711
      5 C         142.2121  138.6392  162.6013 C.3     1  UNL1        0.0735
      6 C         143.4629  139.4168  162.3173 C.3     1  UNL1        0.0331
      7 N         145.6135  140.6055  163.1609 N.3     1  UNL1       -0.2934
      8 H         146.3697  140.1407  163.6634 H       1  UNL1        0.1236
      9 C         145.6885  142.0611  163.5154 C.3     1  UNL1        0.1152
     10 O         140.4447  145.2791  158.7303 O.2     1  UNL1       -0.2707
     11 C         141.0020  145.0930  160.1105 C.2     1  UNL1        0.2718
     12 C         140.3685  145.7936  161.2758 C.3     1  UNL1        0.2898
     13 O         140.9258  145.6075  162.6560 O.3     1  UNL1       -0.4628
     14 C         142.1165  144.7210  162.8708 C.ar    1  UNL1        0.1708
     15 C         142.6737  144.5349  164.2510 C.ar    1  UNL1        0.0411
     16 C         143.8644  143.6483  164.4659 C.ar    1  UNL1        0.0193
     17 C         144.4979  142.9477  163.3005 C.ar    1  UNL1        0.0765
     18 N         143.9406  143.1338  161.9204 N.ar    1  UNL1       -0.2304
     19 C         142.7499  144.0204  161.7055 C.ar    1  UNL1        0.1682
     20 N         142.1926  144.2064  160.3254 N.am    1  UNL1       -0.2639
     21 H         142.6084  143.7466  159.5606 H       1  UNL1        0.1565
     22 C         140.6101  137.4951  164.2968 C.3     1  UNL1        0.0942
     23 C         139.3702  138.2080  164.7488 C.3     1  UNL1        0.1157
     24 N         138.8734  139.4030  163.9903 N.am    1  UNL1       -0.2515
     25 C         138.1217  139.2166  162.7057 C.2     1  UNL1        0.2740
     26 O         137.8668  137.8351  162.1796 O.2     1  UNL1       -0.2705
     27 C         137.6250  140.4115  161.9472 C.3     1  UNL1        0.2900
     28 O         137.8799  141.7929  162.4733 O.3     1  UNL1       -0.4643
     29 C         138.6316  141.9794  163.7578 C.ar    1  UNL1        0.1528
     30 C         138.8866  143.3607  164.2839 C.ar    1  UNL1        0.0383
     31 C         139.6383  143.5472  165.5685 C.ar    1  UNL1        0.0062
     32 C         140.1350  142.3523  166.3270 C.ar    1  UNL1        0.0360
     33 C         139.8801  140.9708  165.8010 C.ar    1  UNL1        0.0210
     34 C         139.1284  140.7844  164.5164 C.ar    1  UNL1        0.0882
     35 C         140.8867  142.5387  167.6116 C.ar    1  UNL1        0.1455
     36 C         142.3115  142.1437  167.8648 C.ar    1  UNL1        0.0407
     37 C         142.6510  142.5138  169.2782 C.ar    1  UNL1        0.0438
     38 C         141.4361  143.1375  169.8986 C.ar    1  UNL1        0.1796
     39 O         140.3456  143.1530  168.8686 O.2     1  UNL1       -0.4504
@<TRIPOS>BOND
     1    10    11    2
     2    11    12    1
     3    12    13    1
     4    13    14    1
     5    14    15   ar
     6    15    16   ar
     7    16    17   ar
     8    17     9    1
     9     9     7    1
    10     7     1    1
    11     1     2    1
    12     2     3    1
    13     3     4    1
    14     4    22    1
    15    22    23    1
    16    23    24    1
    17    24    25   am
    18    25    26    2
    19    25    27    1
    20    27    28    1
    21    28    29    1
    22    29    30   ar
    23    30    31   ar
    24    31    32   ar
    25    32    35    1
    26    35    36   ar
    27    36    37   ar
    28    37    38   ar
    29    38    39   ar
    30    32    33   ar
    31    33    34   ar
    32     4     5    1
    33     5     6    1
    34    17    18   ar
    35    18    19   ar
    36    19    20    1
    37    20    11   am
    38    19    14   ar
    39     6     1    1
    40    34    24    1
    41    34    29   ar
    42    39    35   ar
    43     7     8    1
    44    20    21    1
@<TRIPOS>MOLECULE
*****
 39 44 0 0 0
SMALL
GASTEIGER

@<TRIPOS>ATOM
      1 C         137.9261  140.0921  161.8294 C.3     1  UNL1        0.0570
      2 C         138.1541  141.1907  160.8339 C.3     1  UNL1        0.0331
      3 C         138.1299  142.6230  161.2789 C.3     1  UNL1        0.0735
      4 N         137.8776  142.9566  162.7194 N.3     1  UNL1       -0.2711
      5 C         137.6495  141.8580  163.7149 C.3     1  UNL1        0.0735
      6 C         137.6738  140.4257  163.2699 C.3     1  UNL1        0.0331
      7 N         137.9504  138.6599  161.3844 N.3     1  UNL1       -0.2934
      8 H         137.5143  138.1133  162.1271 H       1  UNL1        0.1236
      9 C         139.2571  137.9949  161.0677 C.3     1  UNL1        0.1152
     10 O         145.9426  141.6661  162.6731 O.2     1  UNL1       -0.2707
     11 C         144.8986  140.6513  163.0342 C.2     1  UNL1        0.2718
     12 C         145.0391  139.8455  164.2916 C.3     1  UNL1        0.2898
     13 O         143.9951  138.8308  164.6527 O.3     1  UNL1       -0.4628
     14 C         142.8107  138.6218  163.7564 C.ar    1  UNL1        0.1708
     15 C         141.7667  137.6071  164.1175 C.ar    1  UNL1        0.0411
     16 C         140.5822  137.3981  163.2213 C.ar    1  UNL1        0.0193
     17 C         140.4416  138.2039  161.9639 C.ar    1  UNL1        0.0765
     18 N         141.4856  139.2186  161.6028 N.ar    1  UNL1       -0.2304
     19 C         142.6701  139.4276  162.4991 C.ar    1  UNL1        0.1682
     20 N         143.7141  140.4423  162.1380 N.am    1  UNL1       -0.2639
     21 H         143.6219  140.9712  161.3127 H       1  UNL1        0.1565
     22 C         137.8533  144.3889  163.1644 C.3     1  UNL1        0.0942
     23 C         138.9368  144.9149  164.0585 C.3     1  UNL1        0.1157
     24 N         140.3639  144.5189  163.8203 N.am    1  UNL1       -0.2515
     25 C         141.0770  144.9894  162.5875 C.2     1  UNL1        0.2740
     26 O         140.3631  145.8560  161.5927 O.2     1  UNL1       -0.2705
     27 C         142.5040  144.5935  162.3493 C.3     1  UNL1        0.2900
     28 O         143.2180  143.7269  163.3440 O.3     1  UNL1       -0.4643
     29 C         142.5049  143.2564  164.5769 C.ar    1  UNL1        0.1528
     30 C         143.2187  142.3898  165.5716 C.ar    1  UNL1        0.0383
     31 C         142.5056  141.9193  166.8045 C.ar    1  UNL1        0.0062
     32 C         141.0786  142.3152  167.0426 C.ar    1  UNL1        0.0360
     33 C         140.3646  143.1818  166.0479 C.ar    1  UNL1        0.0210
     34 C         141.0778  143.6524  164.8150 C.ar    1  UNL1        0.0882
     35 C         140.3654  141.8447  168.2755 C.ar    1  UNL1        0.1455
     36 C         139.7539  140.4899  168.4775 C.ar    1  UNL1        0.0407
     37 C         139.1491  140.4542  169.8497 C.ar    1  UNL1        0.0438
     38 C         139.3868  141.7868  170.4958 C.ar    1  UNL1        0.1796
     39 O         140.1386  142.6463  169.5230 O.2     1  UNL1       -0.4504
@<TRIPOS>BOND
     1    10    11    2
     2    11    12    1
     3    12    13    1
     4    13    14    1
     5    14    15   ar
     6    15    16   ar
     7    16    17   ar
     8    17     9    1
     9     9     7    1
    10     7     1    1
    11     1     2    1
    12     2     3    1
    13     3     4    1
    14     4    22    1
    15    22    23    1
    16    23    24    1
    17    24    25   am
    18    25    26    2
    19    25    27    1
    20    27    28    1
    21    28    29    1
    22    29    30   ar
    23    30    31   ar
    24    31    32   ar
    25    32    35    1
    26    35    36   ar
    27    36    37   ar
    28    37    38   ar
    29    38    39   ar
    30    32    33   ar
    31    33    34   ar
    32     4     5    1
    33     5     6    1
    34    17    18   ar
    35    18    19   ar
    36    19    20    1
    37    20    11   am
    38    19    14   ar
    39     6     1    1
    40    34    24    1
    41    34    29   ar
    42    39    35   ar
    43     7     8    1
    44    20    21    1
@<TRIPOS>MOLECULE
*****
 39 44 0 0 0
SMALL
GASTEIGER

@<TRIPOS>ATOM
      1 C         142.2193  144.5449  163.2511 C.3     1  UNL1        0.0570
      2 C         143.0473  143.9874  162.1315 C.3     1  UNL1        0.0331
      3 C         143.8204  142.7174  162.3307 C.3     1  UNL1        0.0735
      4 N         143.7653  142.0049  163.6495 N.3     1  UNL1       -0.2711
      5 C         142.9372  142.5625  164.7692 C.3     1  UNL1        0.0735
      6 C         142.1643  143.8324  164.5699 C.3     1  UNL1        0.0331
      7 N         141.4464  145.8148  163.0518 N.3     1  UNL1       -0.2934
      8 H         141.2670  146.1989  163.9796 H       1  UNL1        0.1236
      9 C         140.1302  145.7868  162.3328 C.3     1  UNL1        0.1152
     10 O         138.6565  139.3448  158.2002 O.2     1  UNL1       -0.2707
     11 C         138.4117  140.1958  159.4109 C.2     1  UNL1        0.2718
     12 C         137.4309  139.7506  160.4547 C.3     1  UNL1        0.2898
     13 O         137.1860  140.6016  161.6654 O.3     1  UNL1       -0.4628
     14 C         137.9221  141.8979  161.8323 C.ar    1  UNL1        0.1708
     15 C         137.6773  142.7489  163.0430 C.ar    1  UNL1        0.0411
     16 C         138.4133  144.0452  163.2098 C.ar    1  UNL1        0.0193
     17 C         139.3942  144.4905  162.1659 C.ar    1  UNL1        0.0765
     18 N         139.6390  143.6395  160.9552 N.ar    1  UNL1       -0.2304
     19 C         138.9029  142.3431  160.7884 C.ar    1  UNL1        0.1682
     20 N         139.1477  141.4921  159.5777 N.am    1  UNL1       -0.2639
     21 H         139.7915  141.7843  158.8926 H       1  UNL1        0.1565
     22 C         144.5383  140.7350  163.8487 C.3     1  UNL1        0.0942
     23 C         143.8299  139.4861  164.2827 C.3     1  UNL1        0.1157
     24 N         142.6115  139.0193  163.5426 N.am    1  UNL1       -0.2515
     25 C         142.7402  138.4877  162.1459 C.2     1  UNL1        0.2740
     26 O         144.0873  138.4231  161.4892 O.2     1  UNL1       -0.2705
     27 C         141.5219  138.0209  161.4058 C.3     1  UNL1        0.2900
     28 O         140.1748  138.0856  162.0625 O.3     1  UNL1       -0.4643
     29 C         140.0460  138.6171  163.4592 C.ar    1  UNL1        0.1528
     30 C         138.6990  138.6818  164.1159 C.ar    1  UNL1        0.0383
     31 C         138.5703  139.2133  165.5127 C.ar    1  UNL1        0.0062
     32 C         139.7886  139.6801  166.2527 C.ar    1  UNL1        0.0360
     33 C         141.1357  139.6155  165.5961 C.ar    1  UNL1        0.0210
     34 C         141.2644  139.0839  164.1993 C.ar    1  UNL1        0.0882
     35 C         139.6599  140.2116  167.6495 C.ar    1  UNL1        0.1455
     36 C         140.3205  141.4462  168.1875 C.ar    1  UNL1        0.0407
     37 C         139.9169  141.5995  169.6240 C.ar    1  UNL1        0.0438
     38 C         139.0067  140.4597  169.9738 C.ar    1  UNL1        0.1796
     39 O         138.8478  139.6019  168.7536 O.2     1  UNL1       -0.4504
@<TRIPOS>BOND
     1    10    11    2
     2    11    12    1
     3    12    13    1
     4    13    14    1
     5    14    15   ar
     6    15    16   ar
     7    16    17   ar
     8    17     9    1
     9     9     7    1
    10     7     1    1
    11     1     2    1
    12     2     3    1
    13     3     4    1
    14     4    22    1
    15    22    23    1
    16    23    24    1
    17    24    25   am
    18    25    26    2
    19    25    27    1
    20    27    28    1
    21    28    29    1
    22    29    30   ar
    23    30    31   ar
    24    31    32   ar
    25    32    35    1
    26    35    36   ar
    27    36    37   ar
    28    37    38   ar
    29    38    39   ar
    30    32    33   ar
    31    33    34   ar
    32     4     5    1
    33     5     6    1
    34    17    18   ar
    35    18    19   ar
    36    19    20    1
    37    20    11   am
    38    19    14   ar
    39     6     1    1
    40    34    24    1
    41    34    29   ar
    42    39    35   ar
    43     7     8    1
    44    20    21    1
@<TRIPOS>MOLECULE
*****
 39 44 0 0 0
SMALL
GASTEIGER

@<TRIPOS>ATOM
      1 C         137.9205  142.9537  163.0134 C.3     1  UNL1        0.0570
      2 C         137.9384  141.7853  162.0730 C.3     1  UNL1        0.0331
      3 C         138.1602  140.3995  162.6027 C.3     1  UNL1        0.0735
      4 N         138.3641  140.1823  164.0728 N.3     1  UNL1       -0.2711
      5 C         138.3462  141.3508  165.0132 C.3     1  UNL1        0.0735
      6 C         138.1244  142.7365  164.4835 C.3     1  UNL1        0.0331
      7 N         137.6987  144.3394  162.4837 N.3     1  UNL1       -0.2934
      8 H         137.3993  144.2395  161.5138 H       1  UNL1        0.1236
      9 C         138.8220  145.3335  162.4899 C.3     1  UNL1        0.1152
     10 O         144.2231  141.3768  158.4996 O.2     1  UNL1       -0.2707
     11 C         143.8393  142.2277  159.6738 C.2     1  UNL1        0.2718
     12 C         144.8720  142.6105  160.6921 C.3     1  UNL1        0.2898
     13 O         144.4882  143.4614  161.8662 O.3     1  UNL1       -0.4628
     14 C         143.0717  143.9294  162.0222 C.ar    1  UNL1        0.1708
     15 C         142.6879  144.7803  163.1963 C.ar    1  UNL1        0.0411
     16 C         141.2714  145.2483  163.3523 C.ar    1  UNL1        0.0193
     17 C         140.2385  144.8655  162.3340 C.ar    1  UNL1        0.0765
     18 N         140.6224  144.0146  161.1598 N.ar    1  UNL1       -0.2304
     19 C         142.0390  143.5466  161.0039 C.ar    1  UNL1        0.1682
     20 N         142.4228  142.6957  159.8297 N.am    1  UNL1       -0.2639
     21 H         141.7450  142.4444  159.1614 H       1  UNL1        0.1565
     22 C         138.5859  138.7966  164.6025 C.3     1  UNL1        0.0942
     23 C         139.9575  138.3693  165.0339 C.3     1  UNL1        0.1157
     24 N         141.1655  138.8756  164.3028 N.am    1  UNL1       -0.2515
     25 C         141.5727  138.2483  163.0025 C.2     1  UNL1        0.2740
     26 O         140.7720  137.1146  162.4334 O.2     1  UNL1       -0.2705
     27 C         142.7806  138.7545  162.2714 C.3     1  UNL1        0.2900
     28 O         143.5813  139.8882  162.8404 O.3     1  UNL1       -0.4643
     29 C         143.1741  140.5155  164.1407 C.ar    1  UNL1        0.1528
     30 C         143.9747  141.6491  164.7097 C.ar    1  UNL1        0.0383
     31 C         143.5675  142.2764  166.0100 C.ar    1  UNL1        0.0062
     32 C         142.3596  141.7701  166.7411 C.ar    1  UNL1        0.0360
     33 C         141.5589  140.6365  166.1721 C.ar    1  UNL1        0.0210
     34 C         141.9661  140.0092  164.8718 C.ar    1  UNL1        0.0882
     35 C         141.9524  142.3975  168.0414 C.ar    1  UNL1        0.1455
     36 C         142.8062  142.5157  169.2689 C.ar    1  UNL1        0.0407
     37 C         142.0013  143.2080  170.3286 C.ar    1  UNL1        0.0438
     38 C         140.6500  143.5177  169.7559 C.ar    1  UNL1        0.1796
     39 O         140.6196  143.0168  168.3423 O.2     1  UNL1       -0.4504
@<TRIPOS>BOND
     1    10    11    2
     2    11    12    1
     3    12    13    1
     4    13    14    1
     5    14    15   ar
     6    15    16   ar
     7    16    17   ar
     8    17     9    1
     9     9     7    1
    10     7     1    1
    11     1     2    1
    12     2     3    1
    13     3     4    1
    14     4    22    1
    15    22    23    1
    16    23    24    1
    17    24    25   am
    18    25    26    2
    19    25    27    1
    20    27    28    1
    21    28    29    1
    22    29    30   ar
    23    30    31   ar
    24    31    32   ar
    25    32    35    1
    26    35    36   ar
    27    36    37   ar
    28    37    38   ar
    29    38    39   ar
    30    32    33   ar
    31    33    34   ar
    32     4     5    1
    33     5     6    1
    34    17    18   ar
    35    18    19   ar
    36    19    20    1
    37    20    11   am
    38    19    14   ar
    39     6     1    1
    40    34    24    1
    41    34    29   ar
    42    39    35   ar
    43     7     8    1
    44    20    21    1
@<TRIPOS>MOLECULE
*****
 39 44 0 0 0
SMALL
GASTEIGER

@<TRIPOS>ATOM
      1 C         139.9257  137.9789  162.9153 C.3     1  UNL1        0.0570
      2 C         141.1221  138.1251  162.0225 C.3     1  UNL1        0.0331
      3 C         142.4739  138.3886  162.6171 C.3     1  UNL1        0.0735
      4 N         142.6290  138.5060  164.1044 N.3     1  UNL1       -0.2711
      5 C         141.4325  138.3598  164.9972 C.3     1  UNL1        0.0735
      6 C         140.0808  138.0963  164.4026 C.3     1  UNL1        0.0331
      7 N         138.5740  137.7154  162.3207 N.3     1  UNL1       -0.2934
      8 H         138.6438  136.8357  161.8092 H       1  UNL1        0.1236
      9 C         137.9591  138.7131  161.3844 C.3     1  UNL1        0.1152
     10 O         141.4612  145.4500  159.6239 O.2     1  UNL1       -0.2707
     11 C         140.4806  144.6731  160.4514 C.2     1  UNL1        0.2718
     12 C         139.6868  145.3649  161.5197 C.3     1  UNL1        0.2898
     13 O         138.7062  144.5880  162.3472 O.3     1  UNL1       -0.4628
     14 C         138.5194  143.1193  162.1065 C.ar    1  UNL1        0.1708
     15 C         137.5388  142.3424  162.9341 C.ar    1  UNL1        0.0411
     16 C         137.3520  140.8737  162.6934 C.ar    1  UNL1        0.0193
     17 C         138.1458  140.1818  161.6251 C.ar    1  UNL1        0.0765
     18 N         139.1264  140.9587  160.7975 N.ar    1  UNL1       -0.2304
     19 C         139.3132  142.4275  161.0383 C.ar    1  UNL1        0.1682
     20 N         140.2938  143.2044  160.2107 N.am    1  UNL1       -0.2639
     21 H         140.8148  142.7503  159.5096 H       1  UNL1        0.1565
     22 C         143.9807  138.7695  164.6990 C.3     1  UNL1        0.0942
     23 C         144.4769  140.1781  164.8386 C.3     1  UNL1        0.1157
     24 N         143.7081  141.3088  164.2217 N.am    1  UNL1       -0.2515
     25 C         144.0926  141.8261  162.8672 C.2     1  UNL1        0.2740
     26 O         145.2459  141.2129  162.1298 O.2     1  UNL1       -0.2705
     27 C         143.3238  142.9567  162.2503 C.3     1  UNL1        0.2900
     28 O         142.1705  143.5700  162.9877 O.3     1  UNL1       -0.4643
     29 C         141.7860  143.0527  164.3422 C.ar    1  UNL1        0.1528
     30 C         140.6327  143.6659  165.0796 C.ar    1  UNL1        0.0383
     31 C         140.2482  143.1485  166.4341 C.ar    1  UNL1        0.0062
     32 C         141.0170  142.0179  167.0510 C.ar    1  UNL1        0.0360
     33 C         142.1703  141.4046  166.3136 C.ar    1  UNL1        0.0210
     34 C         142.5548  141.9220  164.9591 C.ar    1  UNL1        0.0882
     35 C         140.6325  141.5005  168.4055 C.ar    1  UNL1        0.1455
     36 C         139.5748  140.4757  168.6902 C.ar    1  UNL1        0.0407
     37 C         139.5268  140.2589  170.1737 C.ar    1  UNL1        0.0438
     38 C         140.5548  141.1498  170.8058 C.ar    1  UNL1        0.1796
     39 O         141.2382  141.9172  169.7130 O.2     1  UNL1       -0.4504
@<TRIPOS>BOND
     1    10    11    2
     2    11    12    1
     3    12    13    1
     4    13    14    1
     5    14    15   ar
     6    15    16   ar
     7    16    17   ar
     8    17     9    1
     9     9     7    1
    10     7     1    1
    11     1     2    1
    12     2     3    1
    13     3     4    1
    14     4    22    1
    15    22    23    1
    16    23    24    1
    17    24    25   am
    18    25    26    2
    19    25    27    1
    20    27    28    1
    21    28    29    1
    22    29    30   ar
    23    30    31   ar
    24    31    32   ar
    25    32    35    1
    26    35    36   ar
    27    36    37   ar
    28    37    38   ar
    29    38    39   ar
    30    32    33   ar
    31    33    34   ar
    32     4     5    1
    33     5     6    1
    34    17    18   ar
    35    18    19   ar
    36    19    20    1
    37    20    11   am
    38    19    14   ar
    39     6     1    1
    40    34    24    1
    41    34    29   ar
    42    39    35   ar
    43     7     8    1
    44    20    21    1
@<TRIPOS>MOLECULE
*****
 39 44 0 0 0
SMALL
GASTEIGER

@<TRIPOS>ATOM
      1 C         144.2858  141.7202  163.9117 C.3     1  UNL1        0.0570
      2 C         143.7930  142.3278  162.6320 C.3     1  UNL1        0.0331
      3 C         142.7533  143.4086  162.6664 C.3     1  UNL1        0.0735
      4 N         142.2065  143.8816  163.9807 N.3     1  UNL1       -0.2711
      5 C         142.6994  143.2738  165.2605 C.3     1  UNL1        0.0735
      6 C         143.7390  142.1932  165.2260 C.3     1  UNL1        0.0331
      7 N         145.3255  140.6395  163.8772 N.3     1  UNL1       -0.2934
      8 H         145.8188  140.7338  162.9895 H       1  UNL1        0.1236
      9 C         144.9164  139.2011  163.9946 C.3     1  UNL1        0.1152
     10 O         138.7996  138.7233  159.1877 O.2     1  UNL1       -0.2707
     11 C         139.4150  138.4844  160.5346 C.2     1  UNL1        0.2718
     12 C         138.6071  137.8474  161.6261 C.3     1  UNL1        0.2898
     13 O         139.2225  137.6086  162.9730 O.3     1  UNL1       -0.4628
     14 C         140.6460  138.0067  163.2284 C.ar    1  UNL1        0.1708
     15 C         141.2614  137.7678  164.5753 C.ar    1  UNL1        0.0411
     16 C         142.6849  138.1659  164.8307 C.ar    1  UNL1        0.0193
     17 C         143.4929  138.8030  163.7392 C.ar    1  UNL1        0.0765
     18 N         142.8775  139.0419  162.3923 N.ar    1  UNL1       -0.2304
     19 C         141.4539  138.6437  162.1369 C.ar    1  UNL1        0.1682
     20 N         140.8385  138.8826  160.7900 N.am    1  UNL1       -0.2639
     21 H         141.3688  139.3006  160.0736 H       1  UNL1        0.1565
     22 C         141.1668  144.9622  164.0152 C.3     1  UNL1        0.0942
     23 C         139.8316  144.6985  164.6456 C.3     1  UNL1        0.1157
     24 N         139.0687  143.4556  164.2944 N.am    1  UNL1       -0.2515
     25 C         138.2202  143.4206  163.0579 C.2     1  UNL1        0.2740
     26 O         138.1346  144.6286  162.1727 O.2     1  UNL1       -0.2705
     27 C         137.4574  142.1778  162.7067 C.3     1  UNL1        0.2900
     28 O         137.5430  140.9698  163.5919 O.3     1  UNL1       -0.4643
     29 C         138.3914  141.0048  164.8284 C.ar    1  UNL1        0.1528
     30 C         138.4771  139.7969  165.7136 C.ar    1  UNL1        0.0383
     31 C         139.3256  139.8319  166.9501 C.ar    1  UNL1        0.0062
     32 C         140.0884  141.0747  167.3013 C.ar    1  UNL1        0.0360
     33 C         140.0028  142.2826  166.4161 C.ar    1  UNL1        0.0210
     34 C         139.1543  142.2477  165.1796 C.ar    1  UNL1        0.0882
     35 C         140.9369  141.1096  168.5378 C.ar    1  UNL1        0.1455
     36 C         142.4120  140.8451  168.6027 C.ar    1  UNL1        0.0407
     37 C         142.8460  140.9872  170.0315 C.ar    1  UNL1        0.0438
     38 C         141.6392  141.3396  170.8497 C.ar    1  UNL1        0.1796
     39 O         140.4592  141.4152  169.9266 O.2     1  UNL1       -0.4504
@<TRIPOS>BOND
     1    10    11    2
     2    11    12    1
     3    12    13    1
     4    13    14    1
     5    14    15   ar
     6    15    16   ar
     7    16    17   ar
     8    17     9    1
     9     9     7    1
    10     7     1    1
    11     1     2    1
    12     2     3    1
    13     3     4    1
    14     4    22    1
    15    22    23    1
    16    23    24    1
    17    24    25   am
    18    25    26    2
    19    25    27    1
    20    27    28    1
    21    28    29    1
    22    29    30   ar
    23    30    31   ar
    24    31    32   ar
    25    32    35    1
    26    35    36   ar
    27    36    37   ar
    28    37    38   ar
    29    38    39   ar
    30    32    33   ar
    31    33    34   ar
    32     4     5    1
    33     5     6    1
    34    17    18   ar
    35    18    19   ar
    36    19    20    1
    37    20    11   am
    38    19    14   ar
    39     6     1    1
    40    34    24    1
    41    34    29   ar
    42    39    35   ar
    43     7     8    1
    44    20    21    1
@<TRIPOS>MOLECULE
*****
 39 44 0 0 0
SMALL
GASTEIGER

@<TRIPOS>ATOM
      1 C         139.2644  138.7818  163.1054 C.3     1  UNL1        0.0570
      2 C         138.9206  139.7886  162.0480 C.3     1  UNL1        0.0331
      3 C         138.3317  141.1125  162.4360 C.3     1  UNL1        0.0735
      4 N         138.0867  141.4296  163.8815 N.3     1  UNL1       -0.2711
      5 C         138.4305  140.4227  164.9390 C.3     1  UNL1        0.0735
      6 C         139.0194  139.0989  164.5509 C.3     1  UNL1        0.0331
      7 N         139.8533  137.4580  162.7173 N.3     1  UNL1       -0.2934
      8 H         139.3798  136.7494  163.2778 H       1  UNL1        0.1236
      9 C         141.3261  137.2183  162.8706 C.3     1  UNL1        0.1152
     10 O         144.2075  142.9425  158.4343 O.2     1  UNL1       -0.2707
     11 C         144.2151  142.1632  159.7159 C.2     1  UNL1        0.2718
     12 C         145.1907  142.5126  160.8004 C.3     1  UNL1        0.2898
     13 O         145.1982  141.7332  162.0820 O.3     1  UNL1       -0.4628
     14 C         144.2302  140.6045  162.2792 C.ar    1  UNL1        0.1708
     15 C         144.2378  139.8252  163.5608 C.ar    1  UNL1        0.0411
     16 C         143.2697  138.6965  163.7580 C.ar    1  UNL1        0.0193
     17 C         142.2941  138.3470  162.6734 C.ar    1  UNL1        0.0765
     18 N         142.2865  139.1264  161.3918 N.ar    1  UNL1       -0.2304
     19 C         143.2546  140.2552  161.1947 C.ar    1  UNL1        0.1682
     20 N         143.2471  141.0345  159.9131 N.am    1  UNL1       -0.2639
     21 H         142.6068  140.8052  159.2013 H       1  UNL1        0.1565
     22 C         137.4978  142.7534  164.2696 C.3     1  UNL1        0.0942
     23 C         138.3788  143.8314  164.8278 C.3     1  UNL1        0.1157
     24 N         139.7192  144.0994  164.2100 N.am    1  UNL1       -0.2515
     25 C         139.8178  144.9230  162.9601 C.2     1  UNL1        0.2740
     26 O         138.5759  145.4784  162.3281 O.2     1  UNL1       -0.2705
     27 C         141.1580  145.1910  162.3423 C.3     1  UNL1        0.2900
     28 O         142.3999  144.6355  162.9743 O.3     1  UNL1       -0.4643
     29 C         142.3013  143.8120  164.2242 C.ar    1  UNL1        0.1528
     30 C         143.5431  143.2565  164.8562 C.ar    1  UNL1        0.0383
     31 C         143.4445  142.4330  166.1060 C.ar    1  UNL1        0.0062
     32 C         142.1043  142.1650  166.7239 C.ar    1  UNL1        0.0360
     33 C         140.8624  142.7204  166.0918 C.ar    1  UNL1        0.0210
     34 C         140.9610  143.5440  164.8420 C.ar    1  UNL1        0.0882
     35 C         142.0057  141.3414  167.9737 C.ar    1  UNL1        0.1455
     36 C         142.5819  139.9712  168.1744 C.ar    1  UNL1        0.0407
     37 C         142.2460  139.5264  169.5670 C.ar    1  UNL1        0.0438
     38 C         141.4621  140.6218  170.2270 C.ar    1  UNL1        0.1796
     39 O         141.3136  141.7436  169.2423 O.2     1  UNL1       -0.4504
@<TRIPOS>BOND
     1    10    11    2
     2    11    12    1
     3    12    13    1
     4    13    14    1
     5    14    15   ar
     6    15    16   ar
     7    16    17   ar
     8    17     9    1
     9     9     7    1
    10     7     1    1
    11     1     2    1
    12     2     3    1
    13     3     4    1
    14     4    22    1
    15    22    23    1
    16    23    24    1
    17    24    25   am
    18    25    26    2
    19    25    27    1
    20    27    28    1
    21    28    29    1
    22    29    30   ar
    23    30    31   ar
    24    31    32   ar
    25    32    35    1
    26    35    36   ar
    27    36    37   ar
    28    37    38   ar
    29    38    39   ar
    30    32    33   ar
    31    33    34   ar
    32     4     5    1
    33     5     6    1
    34    17    18   ar
    35    18    19   ar
    36    19    20    1
    37    20    11   am
    38    19    14   ar
    39     6     1    1
    40    34    24    1
    41    34    29   ar
    42    39    35   ar
    43     7     8    1
    44    20    21    1
@<TRIPOS>MOLECULE
*****
 39 44 0 0 0
SMALL
GASTEIGER

@<TRIPOS>ATOM
      1 C         143.8680  143.3062  163.8966 C.3     1  UNL1        0.0570
      2 C         143.4408  143.9113  162.5923 C.3     1  UNL1        0.0331
      3 C         142.0141  144.3284  162.3905 C.3     1  UNL1        0.0735
      4 N         141.0147  144.1404  163.4932 N.3     1  UNL1       -0.2711
      5 C         141.4419  143.5353  164.7975 C.3     1  UNL1        0.0735
      6 C         142.8685  143.1182  164.9992 C.3     1  UNL1        0.0331
      7 N         145.2946  142.8890  164.0982 N.3     1  UNL1       -0.2934
      8 H         145.8412  143.3470  163.3689 H       1  UNL1        0.1236
      9 C         145.6625  141.4352  164.0668 C.3     1  UNL1        0.1152
     10 O         143.2681  138.7823  157.1401 O.2     1  UNL1       -0.2707
     11 C         143.2505  138.7039  158.6379 C.2     1  UNL1        0.2718
     12 C         142.4173  137.6628  159.3247 C.3     1  UNL1        0.2898
     13 O         142.3997  137.5843  160.8226 O.3     1  UNL1       -0.4628
     14 C         143.2154  138.5470  161.6336 C.ar    1  UNL1        0.1708
     15 C         143.1979  138.4686  163.1315 C.ar    1  UNL1        0.0411
     16 C         144.0136  139.4313  163.9425 C.ar    1  UNL1        0.0193
     17 C         144.8469  140.4725  163.2557 C.ar    1  UNL1        0.0765
     18 N         144.8644  140.5509  161.7579 N.ar    1  UNL1       -0.2304
     19 C         144.0487  139.5881  160.9468 C.ar    1  UNL1        0.1682
     20 N         144.0662  139.6666  159.4490 N.am    1  UNL1       -0.2639
     21 H         144.6131  140.3499  158.9982 H       1  UNL1        0.1565
     22 C         139.5880  144.5576  163.2915 C.3     1  UNL1        0.0942
     23 C         138.4747  143.7015  163.8184 C.3     1  UNL1        0.1157
     24 N         138.3244  142.2880  163.3394 N.am    1  UNL1       -0.2515
     25 C         137.9039  142.0160  161.9254 C.2     1  UNL1        0.2740
     26 O         137.6338  143.1575  160.9905 O.2     1  UNL1       -0.2705
     27 C         137.7536  140.6025  161.4464 C.3     1  UNL1        0.2900
     28 O         138.0238  139.4610  162.3813 O.3     1  UNL1       -0.4643
     29 C         138.4443  139.7330  163.7952 C.ar    1  UNL1        0.1528
     30 C         138.7144  138.5915  164.7301 C.ar    1  UNL1        0.0383
     31 C         139.1349  138.8635  166.1441 C.ar    1  UNL1        0.0062
     32 C         139.2852  140.2770  166.6231 C.ar    1  UNL1        0.0360
     33 C         139.0151  141.4185  165.6882 C.ar    1  UNL1        0.0210
     34 C         138.5946  141.1465  164.2743 C.ar    1  UNL1        0.0882
     35 C         139.7057  140.5490  168.0370 C.ar    1  UNL1        0.1455
     36 C         140.3399  141.8114  168.5409 C.ar    1  UNL1        0.0407
     37 C         140.5920  141.6490  170.0107 C.ar    1  UNL1        0.0438
     38 C         140.1135  140.2861  170.4151 C.ar    1  UNL1        0.1796
     39 O         139.5657  139.6062  169.1954 O.2     1  UNL1       -0.4504
@<TRIPOS>BOND
     1    10    11    2
     2    11    12    1
     3    12    13    1
     4    13    14    1
     5    14    15   ar
     6    15    16   ar
     7    16    17   ar
     8    17     9    1
     9     9     7    1
    10     7     1    1
    11     1     2    1
    12     2     3    1
    13     3     4    1
    14     4    22    1
    15    22    23    1
    16    23    24    1
    17    24    25   am
    18    25    26    2
    19    25    27    1
    20    27    28    1
    21    28    29    1
    22    29    30   ar
    23    30    31   ar
    24    31    32   ar
    25    32    35    1
    26    35    36   ar
    27    36    37   ar
    28    37    38   ar
    29    38    39   ar
    30    32    33   ar
    31    33    34   ar
    32     4     5    1
    33     5     6    1
    34    17    18   ar
    35    18    19   ar
    36    19    20    1
    37    20    11   am
    38    19    14   ar
    39     6     1    1
    40    34    24    1
    41    34    29   ar
    42    39    35   ar
    43     7     8    1
    44    20    21    1
@<TRIPOS>MOLECULE
*****
 39 44 0 0 0
SMALL
GASTEIGER

@<TRIPOS>ATOM
      1 C         143.2057  138.7916  160.7438 C.3     1  UNL1        0.0570
      2 C         143.8938  140.0954  160.4672 C.3     1  UNL1        0.0331
      3 C         144.5738  140.8357  161.5806 C.3     1  UNL1        0.0735
      4 N         144.5658  140.2720  162.9707 N.3     1  UNL1       -0.2711
      5 C         143.8777  138.9681  163.2473 C.3     1  UNL1        0.0735
      6 C         143.1977  138.2280  162.1339 C.3     1  UNL1        0.0331
      7 N         142.5257  138.0514  159.6305 N.3     1  UNL1       -0.2934
      8 H         143.0356  138.2727  158.7752 H       1  UNL1        0.1236
      9 C         141.0736  138.2959  159.3444 C.3     1  UNL1        0.1152
     10 O         137.7936  144.6078  162.5305 O.2     1  UNL1       -0.2707
     11 C         138.0101  143.1236  162.5159 C.2     1  UNL1        0.2718
     12 C         137.3498  142.2591  163.5486 C.3     1  UNL1        0.2898
     13 O         137.5663  140.7749  163.5340 O.3     1  UNL1       -0.4628
     14 C         138.4431  140.1551  162.4866 C.ar    1  UNL1        0.1708
     15 C         138.6597  138.6709  162.4720 C.ar    1  UNL1        0.0411
     16 C         139.5365  138.0512  161.4246 C.ar    1  UNL1        0.0193
     17 C         140.1968  138.9156  160.3917 C.ar    1  UNL1        0.0765
     18 N         139.9803  140.3999  160.4064 N.ar    1  UNL1       -0.2304
     19 C         139.1034  141.0196  161.4539 C.ar    1  UNL1        0.1682
     20 N         138.8869  142.5038  161.4685 N.am    1  UNL1       -0.2639
     21 H         139.3203  143.0712  160.7906 H       1  UNL1        0.1565
     22 C         145.2458  141.0122  164.0840 C.3     1  UNL1        0.0942
     23 C         145.0745  142.4969  164.2120 C.3     1  UNL1        0.1157
     24 N         143.7156  143.1116  164.0519 N.am    1  UNL1       -0.2515
     25 C         143.4175  143.9721  162.8600 C.2     1  UNL1        0.2740
     26 O         144.4782  144.2178  161.8282 O.2     1  UNL1       -0.2705
     27 C         142.0587  144.5869  162.6999 C.3     1  UNL1        0.2900
     28 O         140.9980  144.3412  163.7317 O.3     1  UNL1       -0.4643
     29 C         141.2961  143.4807  164.9236 C.ar    1  UNL1        0.1528
     30 C         140.2355  143.2350  165.9554 C.ar    1  UNL1        0.0383
     31 C         140.5336  142.3745  167.1473 C.ar    1  UNL1        0.0062
     32 C         141.8924  141.7597  167.3074 C.ar    1  UNL1        0.0360
     33 C         142.9531  142.0054  166.2756 C.ar    1  UNL1        0.0210
     34 C         142.6550  142.8659  165.0837 C.ar    1  UNL1        0.0882
     35 C         142.1905  140.8992  168.4993 C.ar    1  UNL1        0.1455
     36 C         142.2350  139.4000  168.5154 C.ar    1  UNL1        0.0407
     37 C         142.5685  138.9611  169.9105 C.ar    1  UNL1        0.0438
     38 C         142.7302  140.1891  170.7566 C.ar    1  UNL1        0.1796
     39 O         142.4966  141.3870  169.8845 O.2     1  UNL1       -0.4504
@<TRIPOS>BOND
     1    10    11    2
     2    11    12    1
     3    12    13    1
     4    13    14    1
     5    14    15   ar
     6    15    16   ar
     7    16    17   ar
     8    17     9    1
     9     9     7    1
    10     7     1    1
    11     1     2    1
    12     2     3    1
    13     3     4    1
    14     4    22    1
    15    22    23    1
    16    23    24    1
    17    24    25   am
    18    25    26    2
    19    25    27    1
    20    27    28    1
    21    28    29    1
    22    29    30   ar
    23    30    31   ar
    24    31    32   ar
    25    32    35    1
    26    35    36   ar
    27    36    37   ar
    28    37    38   ar
    29    38    39   ar
    30    32    33   ar
    31    33    34   ar
    32     4     5    1
    33     5     6    1
    34    17    18   ar
    35    18    19   ar
    36    19    20    1
    37    20    11   am
    38    19    14   ar
    39     6     1    1
    40    34    24    1
    41    34    29   ar
    42    39    35   ar
    43     7     8    1
    44    20    21    1
