@<TRIPOS>MOLECULE
*****
 22 22 0 0 0
SMALL
GASTEIGER

@<TRIPOS>ATOM
      1 C         137.7133  140.6384  163.1773 C.ar    1  UNL1        0.1382
      2 C         137.8599  139.5496  162.1561 C.ar    1  UNL1        0.0369
      3 C         138.4872  138.2419  162.5388 C.ar    1  UNL1        0.0028
      4 C         138.9679  138.0231  163.9427 C.ar    1  UNL1       -0.0040
      5 C         138.8213  139.1119  164.9639 C.ar    1  UNL1       -0.0178
      6 C         138.1941  140.4196  164.5812 C.ar    1  UNL1        0.0327
      7 O         137.0860  141.9461  162.7946 O.3     1  UNL1       -0.4755
      8 C         137.8563  143.2231  162.9556 C.3     1  UNL1        0.2054
      9 C         137.6841  144.0518  164.1940 C.3     1  UNL1        0.0473
     10 C         138.8885  144.5574  164.9315 C.3     1  UNL1        0.0038
     11 C         140.7355  142.9726  165.8409 C.3     1  UNL1        0.0000
     12 C         140.2132  143.8743  164.7621 C.3     1  UNL1        0.0001
     13 C         139.3021  138.8932  166.3679 C.3     1  UNL1        0.0435
     14 C         139.2217  140.0062  167.3702 C.3     1  UNL1        0.0737
     15 N         138.9668  139.6969  168.8157 N.3     1  UNL1       -0.2895
     16 H         139.2739  138.7365  168.9699 H       1  UNL1        0.1237
     17 C         139.6051  140.5326  169.8853 C.3     1  UNL1        0.1552
     18 C         140.6326  141.5623  169.5194 C.2     1  UNL1        0.2419
     19 O         140.2277  142.9957  169.3419 O.2     1  UNL1       -0.2734
     20 N         142.0650  141.1587  169.3309 N.am    1  UNL1       -0.2749
     21 C         143.0924  142.1884  168.9650 C.3     1  UNL1        0.1149
     22 C         142.4698  139.7253  169.5084 C.3     1  UNL1        0.1149
@<TRIPOS>BOND
     1    11    12    1
     2    12    10    1
     3    10     9    1
     4     9     8    1
     5     8     7    1
     6     7     1    1
     7     1     2   ar
     8     2     3   ar
     9     3     4   ar
    10     4     5   ar
    11     5    13    1
    12    13    14    1
    13    14    15    1
    14    15    17    1
    15    17    18    1
    16    18    19    2
    17    18    20   am
    18    20    21    1
    19    20    22    1
    20     5     6   ar
    21     6     1   ar
    22    15    16    1
@<TRIPOS>MOLECULE
*****
 22 22 0 0 0
SMALL
GASTEIGER

@<TRIPOS>ATOM
      1 C         139.2139  140.0040  166.4145 C.ar    1  UNL1        0.1382
      2 C         139.7299  140.0168  167.8229 C.ar    1  UNL1        0.0369
      3 C         140.3720  141.2548  168.3751 C.ar    1  UNL1        0.0028
      4 C         140.4980  142.4800  167.5191 C.ar    1  UNL1       -0.0040
      5 C         139.9820  142.4672  166.1107 C.ar    1  UNL1       -0.0178
      6 C         139.3399  141.2292  165.5584 C.ar    1  UNL1        0.0327
      7 O         138.5718  138.7660  165.8622 O.3     1  UNL1       -0.4755
      8 C         139.1437  138.1043  164.6436 C.3     1  UNL1        0.2054
      9 C         140.4424  137.3593  164.7344 C.3     1  UNL1        0.0473
     10 C         141.7383  138.0810  164.5105 C.3     1  UNL1        0.0038
     11 C         142.9422  139.9691  165.8280 C.3     1  UNL1        0.0000
     12 C         142.5614  138.5255  165.6830 C.3     1  UNL1        0.0001
     13 C         140.1080  143.6925  165.2546 C.3     1  UNL1        0.0435
     14 C         138.9637  144.6569  165.1523 C.3     1  UNL1        0.0737
     15 N         137.8028  144.3506  164.2529 N.3     1  UNL1       -0.2895
     16 H         137.1724  145.1509  164.3031 H       1  UNL1        0.1237
     17 C         138.0347  144.0726  162.7973 C.3     1  UNL1        0.1552
     18 C         137.8321  142.6882  162.2566 C.2     1  UNL1        0.2419
     19 O         136.9292  141.7280  162.9728 O.2     1  UNL1       -0.2734
     20 N         138.5322  142.2639  160.9997 N.am    1  UNL1       -0.2749
     21 C         138.3296  140.8796  160.4590 C.3     1  UNL1        0.1149
     22 C         139.4351  143.2241  160.2835 C.3     1  UNL1        0.1149
@<TRIPOS>BOND
     1    11    12    1
     2    12    10    1
     3    10     9    1
     4     9     8    1
     5     8     7    1
     6     7     1    1
     7     1     2   ar
     8     2     3   ar
     9     3     4   ar
    10     4     5   ar
    11     5    13    1
    12    13    14    1
    13    14    15    1
    14    15    17    1
    15    17    18    1
    16    18    19    2
    17    18    20   am
    18    20    21    1
    19    20    22    1
    20     5     6   ar
    21     6     1   ar
    22    15    16    1
@<TRIPOS>MOLECULE
*****
 22 22 0 0 0
SMALL
GASTEIGER

@<TRIPOS>ATOM
      1 C         142.9606  140.2142  165.5247 C.ar    1  UNL1        0.1382
      2 C         144.0439  139.3500  164.9506 C.ar    1  UNL1        0.0369
      3 C         145.1640  139.9711  164.1697 C.ar    1  UNL1        0.0028
      4 C         145.2007  141.4563  163.9630 C.ar    1  UNL1       -0.0040
      5 C         144.1174  142.3204  164.5371 C.ar    1  UNL1       -0.0178
      6 C         142.9973  141.6994  165.3179 C.ar    1  UNL1        0.0327
      7 O         141.8405  139.5931  166.3055 O.3     1  UNL1       -0.4755
      8 C         140.4476  140.1353  166.1795 C.3     1  UNL1        0.2054
      9 C         139.6419  140.4265  167.4107 C.3     1  UNL1        0.0473
     10 C         140.2944  141.0669  168.5999 C.3     1  UNL1        0.0038
     11 C         140.4059  143.5273  169.4268 C.3     1  UNL1        0.0000
     12 C         140.8637  142.4502  168.4887 C.3     1  UNL1        0.0001
     13 C         144.1541  143.8057  164.3303 C.3     1  UNL1        0.0435
     14 C         144.0849  144.3717  162.9430 C.3     1  UNL1        0.0737
     15 N         142.9172  145.2214  162.5370 N.3     1  UNL1       -0.2895
     16 H         142.5377  144.8117  161.6834 H       1  UNL1        0.1237
     17 C         141.7637  145.4094  163.4771 C.3     1  UNL1        0.1552
     18 C         140.3567  145.3204  162.9650 C.2     1  UNL1        0.2419
     19 O         139.9387  146.1330  161.7754 O.2     1  UNL1       -0.2734
     20 N         139.3675  144.4189  163.6425 N.am    1  UNL1       -0.2749
     21 C         137.9605  144.3299  163.1303 C.3     1  UNL1        0.1149
     22 C         139.7855  143.6063  164.8320 C.3     1  UNL1        0.1149
@<TRIPOS>BOND
     1    11    12    1
     2    12    10    1
     3    10     9    1
     4     9     8    1
     5     8     7    1
     6     7     1    1
     7     1     2   ar
     8     2     3   ar
     9     3     4   ar
    10     4     5   ar
    11     5    13    1
    12    13    14    1
    13    14    15    1
    14    15    17    1
    15    17    18    1
    16    18    19    2
    17    18    20   am
    18    20    21    1
    19    20    22    1
    20     5     6   ar
    21     6     1   ar
    22    15    16    1
@<TRIPOS>MOLECULE
*****
 22 22 0 0 0
SMALL
GASTEIGER

@<TRIPOS>ATOM
      1 C         142.1138  138.9971  164.9016 C.ar    1  UNL1        0.1382
      2 C         142.5173  139.2986  166.3145 C.ar    1  UNL1        0.0369
      3 C         141.4988  139.8013  167.2943 C.ar    1  UNL1        0.0028
      4 C         140.0769  140.0026  166.8612 C.ar    1  UNL1       -0.0040
      5 C         139.6734  139.7011  165.4483 C.ar    1  UNL1       -0.0178
      6 C         140.6919  139.1984  164.4685 C.ar    1  UNL1        0.0327
      7 O         143.1323  138.4944  163.9218 O.3     1  UNL1       -0.4755
      8 C         144.0318  139.4624  163.2120 C.3     1  UNL1        0.2054
      9 C         145.1992  140.0685  163.9330 C.3     1  UNL1        0.0473
     10 C         145.2895  141.5569  164.0960 C.3     1  UNL1        0.0038
     11 C         144.3563  143.7661  165.0954 C.3     1  UNL1        0.0000
     12 C         144.2063  142.2990  164.8213 C.3     1  UNL1        0.0001
     13 C         138.2515  139.9024  165.0151 C.3     1  UNL1        0.0435
     14 C         137.9302  140.0971  163.5629 C.3     1  UNL1        0.0737
     15 N         137.0260  141.2161  163.1383 N.3     1  UNL1       -0.2895
     16 H         136.0979  140.9987  163.5014 H       1  UNL1        0.1237
     17 C         137.3327  142.6255  163.5498 C.3     1  UNL1        0.1552
     18 C         138.0606  143.5398  162.6095 C.2     1  UNL1        0.2419
     19 O         137.9372  143.3443  161.1274 O.2     1  UNL1       -0.2734
     20 N         138.9119  144.6497  163.1512 N.am    1  UNL1       -0.2749
     21 C         139.6398  145.5640  162.2109 C.3     1  UNL1        0.1149
     22 C         139.0353  144.8453  164.6333 C.3     1  UNL1        0.1149
@<TRIPOS>BOND
     1    11    12    1
     2    12    10    1
     3    10     9    1
     4     9     8    1
     5     8     7    1
     6     7     1    1
     7     1     2   ar
     8     2     3   ar
     9     3     4   ar
    10     4     5   ar
    11     5    13    1
    12    13    14    1
    13    14    15    1
    14    15    17    1
    15    17    18    1
    16    18    19    2
    17    18    20   am
    18    20    21    1
    19    20    22    1
    20     5     6   ar
    21     6     1   ar
    22    15    16    1
@<TRIPOS>MOLECULE
*****
 22 22 0 0 0
SMALL
GASTEIGER

@<TRIPOS>ATOM
      1 C         139.3273  140.9154  163.8531 C.ar    1  UNL1        0.1382
      2 C         138.0844  140.4733  164.5669 C.ar    1  UNL1        0.0369
      3 C         138.1898  139.6564  165.8205 C.ar    1  UNL1        0.0028
      4 C         139.5381  139.2816  166.3603 C.ar    1  UNL1       -0.0040
      5 C         140.7811  139.7237  165.6465 C.ar    1  UNL1       -0.0178
      6 C         140.6756  140.5406  164.3929 C.ar    1  UNL1        0.0327
      7 O         139.2219  141.7322  162.5994 O.3     1  UNL1       -0.4755
      8 C         137.9774  142.5221  162.3213 C.3     1  UNL1        0.2054
      9 C         137.7846  143.8667  162.9576 C.3     1  UNL1        0.0473
     10 C         138.9012  144.4938  163.7387 C.3     1  UNL1        0.0038
     11 C         139.7230  143.7118  166.0760 C.3     1  UNL1        0.0000
     12 C         138.8216  144.5660  165.2348 C.3     1  UNL1        0.0001
     13 C         142.1295  139.3489  166.1863 C.3     1  UNL1        0.0435
     14 C         142.6260  139.9672  167.4595 C.3     1  UNL1        0.0737
     15 N         142.8716  139.1082  168.6645 N.3     1  UNL1       -0.2895
     16 H         143.8791  138.9584  168.7189 H       1  UNL1        0.1237
     17 C         142.4291  139.5735  170.0201 C.3     1  UNL1        0.1552
     18 C         141.1610  140.3613  170.1655 C.2     1  UNL1        0.2419
     19 O         139.8348  139.6617  170.1274 O.2     1  UNL1       -0.2734
     20 N         141.2192  141.8490  170.3492 N.am    1  UNL1       -0.2749
     21 C         139.9511  142.6368  170.4947 C.3     1  UNL1        0.1149
     22 C         142.5455  142.5486  170.3874 C.3     1  UNL1        0.1149
@<TRIPOS>BOND
     1    11    12    1
     2    12    10    1
     3    10     9    1
     4     9     8    1
     5     8     7    1
     6     7     1    1
     7     1     2   ar
     8     2     3   ar
     9     3     4   ar
    10     4     5   ar
    11     5    13    1
    12    13    14    1
    13    14    15    1
    14    15    17    1
    15    17    18    1
    16    18    19    2
    17    18    20   am
    18    20    21    1
    19    20    22    1
    20     5     6   ar
    21     6     1   ar
    22    15    16    1
@<TRIPOS>MOLECULE
*****
 22 22 0 0 0
SMALL
GASTEIGER

@<TRIPOS>ATOM
      1 C         139.1412  140.0863  166.4707 C.ar    1  UNL1        0.1382
      2 C         139.9261  140.0268  167.7475 C.ar    1  UNL1        0.0369
      3 C         140.7800  141.1898  168.1578 C.ar    1  UNL1        0.0028
      4 C         140.8489  142.4123  167.2913 C.ar    1  UNL1       -0.0040
      5 C         140.0639  142.4717  166.0145 C.ar    1  UNL1       -0.0178
      6 C         139.2100  141.3087  165.6042 C.ar    1  UNL1        0.0327
      7 O         138.2873  138.9233  166.0604 O.3     1  UNL1       -0.4755
      8 C         138.8661  137.8306  165.2113 C.3     1  UNL1        0.2054
      9 C         140.0591  138.1062  164.3449 C.3     1  UNL1        0.0473
     10 C         141.4025  137.5548  164.7208 C.3     1  UNL1        0.0038
     11 C         142.6547  139.8024  165.0815 C.3     1  UNL1        0.0000
     12 C         142.3640  138.3942  165.5087 C.3     1  UNL1        0.0001
     13 C         140.1327  143.6942  165.1480 C.3     1  UNL1        0.0435
     14 C         141.1273  143.7641  164.0273 C.3     1  UNL1        0.0737
     15 N         141.7856  145.0688  163.6889 N.3     1  UNL1       -0.2895
     16 H         141.4729  145.7456  164.3851 H       1  UNL1        0.1237
     17 C         143.2817  145.1624  163.6355 C.3     1  UNL1        0.1552
     18 C         144.0897  143.9925  163.1578 C.2     1  UNL1        0.2419
     19 O         144.3145  143.7859  161.6892 O.2     1  UNL1       -0.2734
     20 N         144.6729  143.0290  164.1486 N.am    1  UNL1       -0.2749
     21 C         145.4809  141.8591  163.6709 C.3     1  UNL1        0.1149
     22 C         144.4480  143.2356  165.6172 C.3     1  UNL1        0.1149
@<TRIPOS>BOND
     1    11    12    1
     2    12    10    1
     3    10     9    1
     4     9     8    1
     5     8     7    1
     6     7     1    1
     7     1     2   ar
     8     2     3   ar
     9     3     4   ar
    10     4     5   ar
    11     5    13    1
    12    13    14    1
    13    14    15    1
    14    15    17    1
    15    17    18    1
    16    18    19    2
    17    18    20   am
    18    20    21    1
    19    20    22    1
    20     5     6   ar
    21     6     1   ar
    22    15    16    1
@<TRIPOS>MOLECULE
*****
 22 22 0 0 0
SMALL
GASTEIGER

@<TRIPOS>ATOM
      1 C         138.9140  139.7641  164.8869 C.ar    1  UNL1        0.1382
      2 C         138.5265  139.1898  166.2173 C.ar    1  UNL1        0.0369
      3 C         139.1211  139.7469  167.4766 C.ar    1  UNL1        0.0028
      4 C         140.1032  140.8785  167.4057 C.ar    1  UNL1       -0.0040
      5 C         140.4907  141.4529  166.0753 C.ar    1  UNL1       -0.0178
      6 C         139.8961  140.8957  164.8159 C.ar    1  UNL1        0.0327
      7 O         138.3195  139.2069  163.6275 O.3     1  UNL1       -0.4755
      8 C         138.7317  137.8496  163.1401 C.3     1  UNL1        0.2054
      9 C         140.1705  137.5735  162.8178 C.3     1  UNL1        0.0473
     10 C         141.1268  137.2041  163.9129 C.3     1  UNL1        0.0038
     11 C         142.5624  138.4072  165.7133 C.3     1  UNL1        0.0000
     12 C         142.2496  138.1315  164.2725 C.3     1  UNL1        0.0001
     13 C         141.4728  142.5845  166.0043 C.3     1  UNL1        0.0435
     14 C         142.1774  142.8862  164.7149 C.3     1  UNL1        0.0737
     15 N         142.4351  144.3091  164.3162 N.3     1  UNL1       -0.2895
     16 H         143.2235  144.2955  163.6691 H       1  UNL1        0.1237
     17 C         141.3510  145.1125  163.6609 C.3     1  UNL1        0.1552
     18 C         140.1960  144.4175  163.0030 C.2     1  UNL1        0.2419
     19 O         140.3453  143.8621  161.6176 O.2     1  UNL1       -0.2734
     20 N         138.8916  144.2778  163.7304 N.am    1  UNL1       -0.2749
     21 C         137.7366  143.5828  163.0725 C.3     1  UNL1        0.1149
     22 C         138.7423  144.8331  165.1158 C.3     1  UNL1        0.1149
@<TRIPOS>BOND
     1    11    12    1
     2    12    10    1
     3    10     9    1
     4     9     8    1
     5     8     7    1
     6     7     1    1
     7     1     2   ar
     8     2     3   ar
     9     3     4   ar
    10     4     5   ar
    11     5    13    1
    12    13    14    1
    13    14    15    1
    14    15    17    1
    15    17    18    1
    16    18    19    2
    17    18    20   am
    18    20    21    1
    19    20    22    1
    20     5     6   ar
    21     6     1   ar
    22    15    16    1
@<TRIPOS>MOLECULE
*****
 22 22 0 0 0
SMALL
GASTEIGER

@<TRIPOS>ATOM
      1 C         143.6461  139.9205  164.3420 C.ar    1  UNL1        0.1382
      2 C         145.1114  140.1120  164.0853 C.ar    1  UNL1        0.0369
      3 C         145.6613  141.4910  163.8707 C.ar    1  UNL1        0.0028
      4 C         144.7458  142.6784  163.9130 C.ar    1  UNL1       -0.0040
      5 C         143.2804  142.4869  164.1697 C.ar    1  UNL1       -0.0178
      6 C         142.7306  141.1079  164.3843 C.ar    1  UNL1        0.0327
      7 O         143.0962  138.5415  164.5566 O.3     1  UNL1       -0.4755
      8 C         141.7101  138.3631  165.1013 C.3     1  UNL1        0.2054
      9 C         140.7055  137.5471  164.3431 C.3     1  UNL1        0.0473
     10 C         139.2407  137.8355  164.4897 C.3     1  UNL1        0.0038
     11 C         137.8886  138.4858  166.6108 C.3     1  UNL1        0.0000
     12 C         138.5198  137.4373  165.7434 C.3     1  UNL1        0.0001
     13 C         142.3649  143.6744  164.2120 C.3     1  UNL1        0.0435
     14 C         142.2463  144.5729  163.0168 C.3     1  UNL1        0.0737
     15 N         141.4270  145.8267  163.0994 N.3     1  UNL1       -0.2895
     16 H         142.0028  146.5800  162.7233 H       1  UNL1        0.1237
     17 C         140.1021  145.9043  162.4005 C.3     1  UNL1        0.1552
     18 C         139.2619  144.6712  162.2468 C.2     1  UNL1        0.2419
     19 O         139.1227  144.0213  160.9021 O.2     1  UNL1       -0.2734
     20 N         138.5610  144.0880  163.4379 N.am    1  UNL1       -0.2749
     21 C         137.7208  142.8549  163.2842 C.3     1  UNL1        0.1149
     22 C         138.7002  144.7378  164.7826 C.3     1  UNL1        0.1149
@<TRIPOS>BOND
     1    11    12    1
     2    12    10    1
     3    10     9    1
     4     9     8    1
     5     8     7    1
     6     7     1    1
     7     1     2   ar
     8     2     3   ar
     9     3     4   ar
    10     4     5   ar
    11     5    13    1
    12    13    14    1
    13    14    15    1
    14    15    17    1
    15    17    18    1
    16    18    19    2
    17    18    20   am
    18    20    21    1
    19    20    22    1
    20     5     6   ar
    21     6     1   ar
    22    15    16    1
@<TRIPOS>MOLECULE
*****
 22 22 0 0 0
SMALL
GASTEIGER

@<TRIPOS>ATOM
      1 C         141.9474  140.3725  165.6002 C.ar    1  UNL1        0.1382
      2 C         141.5739  140.2800  167.0499 C.ar    1  UNL1        0.0369
      3 C         140.8621  141.4204  167.7153 C.ar    1  UNL1        0.0028
      4 C         140.5237  142.6534  166.9308 C.ar    1  UNL1       -0.0040
      5 C         140.8972  142.7458  165.4810 C.ar    1  UNL1       -0.0178
      6 C         141.6091  141.6054  164.8157 C.ar    1  UNL1        0.0327
      7 O         142.6593  139.2320  164.9348 O.3     1  UNL1       -0.4755
      8 C         142.1254  137.8363  165.0652 C.3     1  UNL1        0.2054
      9 C         140.8989  137.4284  164.3042 C.3     1  UNL1        0.0473
     10 C         139.5386  137.6720  164.8877 C.3     1  UNL1        0.0038
     11 C         138.2166  139.8210  165.5071 C.3     1  UNL1        0.0000
     12 C         138.7482  138.8765  164.4702 C.3     1  UNL1        0.0001
     13 C         140.5589  143.9788  164.6965 C.3     1  UNL1        0.0435
     14 C         141.2731  144.2684  163.4096 C.3     1  UNL1        0.0737
     15 N         142.2545  145.4003  163.3348 N.3     1  UNL1       -0.2895
     16 H         142.1226  145.9606  164.1769 H       1  UNL1        0.1237
     17 C         143.7232  145.1138  163.2311 C.3     1  UNL1        0.1552
     18 C         144.2927  143.8780  163.8622 C.2     1  UNL1        0.2419
     19 O         144.4135  143.7854  165.3545 O.2     1  UNL1       -0.2734
     20 N         144.7413  142.7346  163.0010 N.am    1  UNL1       -0.2749
     21 C         145.3108  141.4987  163.6321 C.3     1  UNL1        0.1149
     22 C         144.6205  142.8272  161.5088 C.3     1  UNL1        0.1149
@<TRIPOS>BOND
     1    11    12    1
     2    12    10    1
     3    10     9    1
     4     9     8    1
     5     8     7    1
     6     7     1    1
     7     1     2   ar
     8     2     3   ar
     9     3     4   ar
    10     4     5   ar
    11     5    13    1
    12    13    14    1
    13    14    15    1
    14    15    17    1
    15    17    18    1
    16    18    19    2
    17    18    20   am
    18    20    21    1
    19    20    22    1
    20     5     6   ar
    21     6     1   ar
    22    15    16    1
