@<TRIPOS>MOLECULE
*****
 38 43 0 0 0
SMALL
GASTEIGER

@<TRIPOS>ATOM
      1 C         143.9789  140.0871  156.9633 C.ar    1  UNL1        0.1042
      2 C         144.5030  139.4501  155.7105 C.ar    1  UNL1        0.0141
      3 C         145.7016  140.0294  155.0193 C.ar    1  UNL1        0.0199
      4 C         146.3761  141.2458  155.5809 C.ar    1  UNL1        0.0830
      5 N         145.8520  141.8828  156.8337 N.ar    1  UNL1       -0.2259
      6 C         144.6535  141.3035  157.5249 C.ar    1  UNL1        0.1740
      7 C         143.8285  138.2336  155.1489 C.ar    1  UNL1        0.0008
      8 C         144.2141  136.8691  155.6381 C.ar    1  UNL1        0.0000
      9 C         143.5396  135.6526  155.0765 C.ar    1  UNL1        0.0000
     10 C         142.4795  135.8008  154.0256 C.ar    1  UNL1        0.0000
     11 C         142.0939  137.1654  153.5364 C.ar    1  UNL1        0.0000
     12 C         142.7684  138.3818  154.0981 C.ar    1  UNL1        0.0000
     13 C         147.5747  141.8252  154.8897 C.ar    1  UNL1        0.0177
     14 C         147.3929  142.7884  153.7543 C.ar    1  UNL1        0.0015
     15 C         148.5915  143.3677  153.0631 C.ar    1  UNL1        0.0000
     16 C         149.9718  142.9839  153.5073 C.ar    1  UNL1        0.0000
     17 C         150.1535  142.0207  154.6426 C.ar    1  UNL1        0.0000
     18 C         148.9550  141.4413  155.3339 C.ar    1  UNL1        0.0015
     19 N         144.1294  141.9406  158.7777 N.2     1  UNL1       -0.2011
     20 C         143.1688  143.0892  158.6898 C.ar    1  UNL1        0.1981
     21 S         142.6450  143.7059  157.4267 S.2     1  UNL1       -0.0278
     22 C         141.7158  144.8207  157.8057 C.ar    1  UNL1        0.1335
     23 N         141.6654  144.8931  159.3032 N.ar    1  UNL1       -0.1567
     24 N         142.5634  143.8230  159.8495 N.ar    1  UNL1       -0.2062
     25 C         140.9684  145.7075  156.8545 C.ar    1  UNL1        0.0256
     26 C         139.8272  146.5455  157.3498 C.ar    1  UNL1        0.0021
     27 C         139.0797  147.4323  156.3985 C.ar    1  UNL1        0.0001
     28 C         139.4735  147.4810  154.9519 C.ar    1  UNL1        0.0000
     29 C         140.6146  146.6430  154.4567 C.ar    1  UNL1        0.0001
     30 C         141.3621  145.7562  155.4079 C.ar    1  UNL1        0.0021
     31 C         142.8122  143.5369  161.3008 C.ar    1  UNL1        0.0849
     32 C         141.6627  143.2174  162.2100 C.ar    1  UNL1        0.0192
     33 C         141.9115  142.9313  163.6613 C.ar    1  UNL1        0.0015
     34 C         143.3096  142.9647  164.2034 C.ar    1  UNL1        0.0001
     35 C         144.4592  143.2842  163.2942 C.ar    1  UNL1        0.0015
     36 C         144.2104  143.5703  161.8430 C.ar    1  UNL1        0.0192
     37 N         141.5818  138.9284  158.3457 N.1     1  UNL1       -0.1907
     38 C         142.7804  139.5077  157.6545 C.1     1  UNL1        0.1035
@<TRIPOS>BOND
     1    37    38    3
     2    38     1    1
     3     1     2   ar
     4     2     7    1
     5     7     8   ar
     6     8     9   ar
     7     9    10   ar
     8    10    11   ar
     9    11    12   ar
    10     2     3   ar
    11     3     4   ar
    12     4    13    1
    13    13    14   ar
    14    14    15   ar
    15    15    16   ar
    16    16    17   ar
    17    17    18   ar
    18     4     5   ar
    19     5     6   ar
    20     6    19    1
    21    19    20    2
    22    20    21   ar
    23    21    22   ar
    24    22    25    1
    25    25    26   ar
    26    26    27   ar
    27    27    28   ar
    28    28    29   ar
    29    29    30   ar
    30    22    23   ar
    31    23    24   ar
    32    24    31    1
    33    31    32   ar
    34    32    33   ar
    35    33    34   ar
    36    34    35   ar
    37    35    36   ar
    38     6     1   ar
    39    24    20   ar
    40    36    31   ar
    41    12     7   ar
    42    18    13   ar
    43    30    25   ar
@<TRIPOS>MOLECULE
*****
 38 43 0 0 0
SMALL
GASTEIGER

@<TRIPOS>ATOM
      1 C         141.4703  144.7615  159.3421 C.ar    1  UNL1        0.1042
      2 C         142.2643  143.7029  160.0484 C.ar    1  UNL1        0.0141
      3 C         143.2050  142.8287  159.2734 C.ar    1  UNL1        0.0199
      4 C         143.3518  143.0131  157.7920 C.ar    1  UNL1        0.0830
      5 N         142.5578  144.0717  157.0857 N.ar    1  UNL1       -0.2259
      6 C         141.6171  144.9459  157.8608 C.ar    1  UNL1        0.1740
      7 C         142.1176  143.5185  161.5298 C.ar    1  UNL1        0.0008
      8 C         142.9485  144.3365  162.4734 C.ar    1  UNL1        0.0000
      9 C         142.8018  144.1521  163.9548 C.ar    1  UNL1        0.0000
     10 C         141.8241  143.1497  164.4926 C.ar    1  UNL1        0.0000
     11 C         140.9931  142.3316  163.5490 C.ar    1  UNL1        0.0000
     12 C         141.1399  142.5161  162.0676 C.ar    1  UNL1        0.0000
     13 C         144.2925  142.1388  157.0169 C.ar    1  UNL1        0.0177
     14 C         143.7969  140.8632  156.4028 C.ar    1  UNL1        0.0015
     15 C         144.7376  139.9890  155.6277 C.ar    1  UNL1        0.0000
     16 C         146.1739  140.3903  155.4668 C.ar    1  UNL1        0.0000
     17 C         146.6695  141.6659  156.0810 C.ar    1  UNL1        0.0000
     18 C         145.7288  142.5401  156.8561 C.ar    1  UNL1        0.0015
     19 N         140.8230  146.0046  157.1544 N.2     1  UNL1       -0.2011
     20 C         139.5898  145.6303  156.3871 C.ar    1  UNL1        0.1981
     21 S         139.0304  144.2465  156.2375 S.2     1  UNL1       -0.0278
     22 C         137.7942  144.3351  155.3926 C.ar    1  UNL1        0.1335
     23 N         137.5895  145.7736  155.0200 N.ar    1  UNL1       -0.1567
     24 N         138.6992  146.5741  155.6347 N.ar    1  UNL1       -0.2062
     25 C         136.9168  143.1868  154.9907 C.ar    1  UNL1        0.0256
     26 C         136.5443  142.1393  155.9978 C.ar    1  UNL1        0.0021
     27 C         135.6669  140.9910  155.5960 C.ar    1  UNL1        0.0001
     28 C         135.1619  140.8902  154.1871 C.ar    1  UNL1        0.0000
     29 C         135.5343  141.9376  153.1802 C.ar    1  UNL1        0.0001
     30 C         136.4118  143.0859  153.5820 C.ar    1  UNL1        0.0021
     31 C         138.8856  148.0578  155.5174 C.ar    1  UNL1        0.0849
     32 C         139.5537  148.6363  154.3054 C.ar    1  UNL1        0.0192
     33 C         139.7401  150.1201  154.1882 C.ar    1  UNL1        0.0015
     34 C         139.2584  151.0254  155.2829 C.ar    1  UNL1        0.0001
     35 C         138.5903  150.4469  156.4950 C.ar    1  UNL1        0.0015
     36 C         138.4039  148.9631  156.6122 C.ar    1  UNL1        0.0192
     37 N         139.5889  146.5100  160.8923 N.1     1  UNL1       -0.1907
     38 C         140.5296  145.6358  160.1172 C.1     1  UNL1        0.1035
@<TRIPOS>BOND
     1    37    38    3
     2    38     1    1
     3     1     2   ar
     4     2     7    1
     5     7     8   ar
     6     8     9   ar
     7     9    10   ar
     8    10    11   ar
     9    11    12   ar
    10     2     3   ar
    11     3     4   ar
    12     4    13    1
    13    13    14   ar
    14    14    15   ar
    15    15    16   ar
    16    16    17   ar
    17    17    18   ar
    18     4     5   ar
    19     5     6   ar
    20     6    19    1
    21    19    20    2
    22    20    21   ar
    23    21    22   ar
    24    22    25    1
    25    25    26   ar
    26    26    27   ar
    27    27    28   ar
    28    28    29   ar
    29    29    30   ar
    30    22    23   ar
    31    23    24   ar
    32    24    31    1
    33    31    32   ar
    34    32    33   ar
    35    33    34   ar
    36    34    35   ar
    37    35    36   ar
    38     6     1   ar
    39    24    20   ar
    40    36    31   ar
    41    12     7   ar
    42    18    13   ar
    43    30    25   ar
@<TRIPOS>MOLECULE
*****
 38 43 0 0 0
SMALL
GASTEIGER

@<TRIPOS>ATOM
      1 C         139.4370  139.2778  158.5135 C.ar    1  UNL1        0.1042
      2 C         138.4846  140.4042  158.7858 C.ar    1  UNL1        0.0141
      3 C         137.5934  140.9138  157.6921 C.ar    1  UNL1        0.0199
      4 C         137.6546  140.2971  156.3262 C.ar    1  UNL1        0.0830
      5 N         138.6071  139.1708  156.0539 N.ar    1  UNL1       -0.2259
      6 C         139.4983  138.6611  157.1475 C.ar    1  UNL1        0.1740
      7 C         138.4233  141.0209  160.1518 C.ar    1  UNL1        0.0008
      8 C         139.1529  142.3017  160.4298 C.ar    1  UNL1        0.0000
      9 C         139.0916  142.9184  161.7959 C.ar    1  UNL1        0.0000
     10 C         138.3008  142.2544  162.8838 C.ar    1  UNL1        0.0000
     11 C         137.5711  140.9736  162.6057 C.ar    1  UNL1        0.0000
     12 C         137.6324  140.3569  161.2397 C.ar    1  UNL1        0.0000
     13 C         136.7634  140.8067  155.2326 C.ar    1  UNL1        0.0177
     14 C         137.3480  141.5798  154.0878 C.ar    1  UNL1        0.0015
     15 C         136.4567  142.0894  152.9941 C.ar    1  UNL1        0.0000
     16 C         134.9810  141.8259  153.0453 C.ar    1  UNL1        0.0000
     17 C         134.3964  141.0528  154.1901 C.ar    1  UNL1        0.0000
     18 C         135.2876  140.5432  155.2837 C.ar    1  UNL1        0.0015
     19 N         140.4507  137.5348  156.8751 N.2     1  UNL1       -0.2011
     20 C         141.8726  137.8292  156.4989 C.ar    1  UNL1        0.1981
     21 S         142.4828  139.1921  156.3564 S.2     1  UNL1       -0.0278
     22 C         143.9212  139.0178  155.9685 C.ar    1  UNL1        0.1335
     23 N         144.2000  137.5471  155.8712 N.ar    1  UNL1       -0.1567
     24 N         142.9339  136.8126  156.1990 N.ar    1  UNL1       -0.2062
     25 C         144.9076  140.1204  155.7213 C.ar    1  UNL1        0.0256
     26 C         145.3026  141.0382  156.8401 C.ar    1  UNL1        0.0021
     27 C         146.2890  142.1409  156.5929 C.ar    1  UNL1        0.0001
     28 C         146.8804  142.3257  155.2269 C.ar    1  UNL1        0.0000
     29 C         146.4854  141.4080  154.1081 C.ar    1  UNL1        0.0001
     30 C         145.4990  140.3054  154.3554 C.ar    1  UNL1        0.0021
     31 C         142.7598  135.3229  156.2228 C.ar    1  UNL1        0.0849
     32 C         141.8008  134.6648  155.2755 C.ar    1  UNL1        0.0192
     33 C         141.6267  133.1751  155.2993 C.ar    1  UNL1        0.0015
     34 C         142.4114  132.3436  156.2702 C.ar    1  UNL1        0.0001
     35 C         143.3704  133.0017  157.2175 C.ar    1  UNL1        0.0015
     36 C         143.5445  134.4914  157.1937 C.ar    1  UNL1        0.0192
     37 N         141.2195  138.2586  160.7007 N.1     1  UNL1       -0.1907
     38 C         140.3282  138.7682  159.6071 C.1     1  UNL1        0.1035
@<TRIPOS>BOND
     1    37    38    3
     2    38     1    1
     3     1     2   ar
     4     2     7    1
     5     7     8   ar
     6     8     9   ar
     7     9    10   ar
     8    10    11   ar
     9    11    12   ar
    10     2     3   ar
    11     3     4   ar
    12     4    13    1
    13    13    14   ar
    14    14    15   ar
    15    15    16   ar
    16    16    17   ar
    17    17    18   ar
    18     4     5   ar
    19     5     6   ar
    20     6    19    1
    21    19    20    2
    22    20    21   ar
    23    21    22   ar
    24    22    25    1
    25    25    26   ar
    26    26    27   ar
    27    27    28   ar
    28    28    29   ar
    29    29    30   ar
    30    22    23   ar
    31    23    24   ar
    32    24    31    1
    33    31    32   ar
    34    32    33   ar
    35    33    34   ar
    36    34    35   ar
    37    35    36   ar
    38     6     1   ar
    39    24    20   ar
    40    36    31   ar
    41    12     7   ar
    42    18    13   ar
    43    30    25   ar
@<TRIPOS>MOLECULE
*****
 38 43 0 0 0
SMALL
GASTEIGER

@<TRIPOS>ATOM
      1 C         138.6412  139.3244  155.9183 C.ar    1  UNL1        0.1042
      2 C         137.6976  140.4593  156.1864 C.ar    1  UNL1        0.0141
      3 C         137.5302  140.9816  157.5825 C.ar    1  UNL1        0.0199
      4 C         138.3064  140.3692  158.7105 C.ar    1  UNL1        0.0830
      5 N         139.2499  139.2344  158.4424 N.ar    1  UNL1       -0.2259
      6 C         139.4173  138.7120  157.0463 C.ar    1  UNL1        0.1740
      7 C         136.9214  141.0718  155.0583 C.ar    1  UNL1        0.0008
      8 C         135.5880  140.5047  154.6706 C.ar    1  UNL1        0.0000
      9 C         134.8118  141.1172  153.5425 C.ar    1  UNL1        0.0000
     10 C         135.3692  142.2968  152.8022 C.ar    1  UNL1        0.0000
     11 C         136.7027  142.8638  153.1900 C.ar    1  UNL1        0.0000
     12 C         137.4788  142.2513  154.3180 C.ar    1  UNL1        0.0000
     13 C         138.1390  140.8916  160.1066 C.ar    1  UNL1        0.0177
     14 C         138.3537  142.3482  160.3931 C.ar    1  UNL1        0.0015
     15 C         138.1863  142.8706  161.7892 C.ar    1  UNL1        0.0000
     16 C         137.8041  141.9363  162.8988 C.ar    1  UNL1        0.0000
     17 C         137.5894  140.4797  162.6123 C.ar    1  UNL1        0.0000
     18 C         137.7568  139.9574  161.2162 C.ar    1  UNL1        0.0015
     19 N         140.3609  137.5771  156.7783 N.2     1  UNL1       -0.2011
     20 C         141.7978  137.8576  156.4520 C.ar    1  UNL1        0.1981
     21 S         142.4322  139.2136  156.3582 S.2     1  UNL1       -0.0278
     22 C         143.8791  139.0254  156.0105 C.ar    1  UNL1        0.1335
     23 N         144.1390  137.5530  155.8894 N.ar    1  UNL1       -0.1567
     24 N         142.8527  136.8313  156.1623 N.ar    1  UNL1       -0.2062
     25 C         144.8889  140.1177  155.8177 C.ar    1  UNL1        0.0256
     26 C         145.2171  141.0442  156.9508 C.ar    1  UNL1        0.0021
     27 C         146.2269  142.1365  156.7580 C.ar    1  UNL1        0.0001
     28 C         146.9085  142.3023  155.4321 C.ar    1  UNL1        0.0000
     29 C         146.5803  141.3758  154.2991 C.ar    1  UNL1        0.0001
     30 C         145.5705  140.2835  154.4919 C.ar    1  UNL1        0.0021
     31 C         142.6558  135.3444  156.1479 C.ar    1  UNL1        0.0849
     32 C         141.6939  134.7245  155.1781 C.ar    1  UNL1        0.0192
     33 C         141.4970  133.2376  155.1638 C.ar    1  UNL1        0.0015
     34 C         142.2620  132.3704  156.1191 C.ar    1  UNL1        0.0001
     35 C         143.2239  132.9902  157.0890 C.ar    1  UNL1        0.0015
     36 C         143.4208  134.4772  157.1033 C.ar    1  UNL1        0.0192
     37 N         138.9760  138.2797  153.1261 N.1     1  UNL1       -0.1907
     38 C         138.8086  138.8021  154.5222 C.1     1  UNL1        0.1035
@<TRIPOS>BOND
     1    37    38    3
     2    38     1    1
     3     1     2   ar
     4     2     7    1
     5     7     8   ar
     6     8     9   ar
     7     9    10   ar
     8    10    11   ar
     9    11    12   ar
    10     2     3   ar
    11     3     4   ar
    12     4    13    1
    13    13    14   ar
    14    14    15   ar
    15    15    16   ar
    16    16    17   ar
    17    17    18   ar
    18     4     5   ar
    19     5     6   ar
    20     6    19    1
    21    19    20    2
    22    20    21   ar
    23    21    22   ar
    24    22    25    1
    25    25    26   ar
    26    26    27   ar
    27    27    28   ar
    28    28    29   ar
    29    29    30   ar
    30    22    23   ar
    31    23    24   ar
    32    24    31    1
    33    31    32   ar
    34    32    33   ar
    35    33    34   ar
    36    34    35   ar
    37    35    36   ar
    38     6     1   ar
    39    24    20   ar
    40    36    31   ar
    41    12     7   ar
    42    18    13   ar
    43    30    25   ar
@<TRIPOS>MOLECULE
*****
 38 43 0 0 0
SMALL
GASTEIGER

@<TRIPOS>ATOM
      1 C         140.2040  140.6584  158.6789 C.ar    1  UNL1        0.1042
      2 C         138.7785  140.7083  159.1430 C.ar    1  UNL1        0.0141
      3 C         137.6652  140.7783  158.1402 C.ar    1  UNL1        0.0199
      4 C         137.9774  140.7983  156.6732 C.ar    1  UNL1        0.0830
      5 N         139.4029  140.7484  156.2091 N.ar    1  UNL1       -0.2259
      6 C         140.5162  140.6785  157.2119 C.ar    1  UNL1        0.1740
      7 C         138.4662  140.6883  160.6101 C.ar    1  UNL1        0.0008
      8 C         138.1480  141.9670  161.3267 C.ar    1  UNL1        0.0000
      9 C         137.8357  141.9470  162.7937 C.ar    1  UNL1        0.0000
     10 C         137.8417  140.6482  163.5441 C.ar    1  UNL1        0.0000
     11 C         138.1599  139.3694  162.8274 C.ar    1  UNL1        0.0000
     12 C         138.4722  139.3895  161.3604 C.ar    1  UNL1        0.0000
     13 C         136.8642  140.8683  155.6703 C.ar    1  UNL1        0.0177
     14 C         137.1759  141.0632  154.2161 C.ar    1  UNL1        0.0015
     15 C         136.0626  141.1331  153.2132 C.ar    1  UNL1        0.0000
     16 C         134.6376  141.0082  153.6646 C.ar    1  UNL1        0.0000
     17 C         134.3259  140.8133  155.1188 C.ar    1  UNL1        0.0000
     18 C         135.4392  140.7433  156.1217 C.ar    1  UNL1        0.0015
     19 N         141.9417  140.6286  156.7477 N.2     1  UNL1       -0.2011
     20 C         142.5918  139.3072  156.4625 C.ar    1  UNL1        0.1981
     21 S         141.9459  137.9599  156.5953 S.2     1  UNL1       -0.0278
     22 C         142.9568  136.9211  156.2093 C.ar    1  UNL1        0.1335
     23 N         144.2275  137.6265  155.8380 N.ar    1  UNL1       -0.1567
     24 N         144.0019  139.1011  155.9945 N.ar    1  UNL1       -0.2062
     25 C         142.7359  135.4376  156.1968 C.ar    1  UNL1        0.0256
     26 C         141.6917  134.8423  155.2994 C.ar    1  UNL1        0.0021
     27 C         141.4707  133.3587  155.2869 C.ar    1  UNL1        0.0001
     28 C         142.2939  132.4704  156.1719 C.ar    1  UNL1        0.0000
     29 C         143.3381  133.0656  157.0692 C.ar    1  UNL1        0.0001
     30 C         143.5590  134.5492  157.0817 C.ar    1  UNL1        0.0021
     31 C         145.0096  140.1802  155.7295 C.ar    1  UNL1        0.0849
     32 C         145.5480  140.3796  154.3438 C.ar    1  UNL1        0.0192
     33 C         146.5556  141.4587  154.0787 C.ar    1  UNL1        0.0015
     34 C         147.0249  142.3384  155.1994 C.ar    1  UNL1        0.0001
     35 C         146.4865  142.1390  156.5852 C.ar    1  UNL1        0.0015
     36 C         145.4789  141.0599  156.8502 C.ar    1  UNL1        0.0192
     37 N         142.4305  140.5185  160.6846 N.1     1  UNL1       -0.1907
     38 C         141.3172  140.5885  159.6818 C.1     1  UNL1        0.1035
@<TRIPOS>BOND
     1    37    38    3
     2    38     1    1
     3     1     2   ar
     4     2     7    1
     5     7     8   ar
     6     8     9   ar
     7     9    10   ar
     8    10    11   ar
     9    11    12   ar
    10     2     3   ar
    11     3     4   ar
    12     4    13    1
    13    13    14   ar
    14    14    15   ar
    15    15    16   ar
    16    16    17   ar
    17    17    18   ar
    18     4     5   ar
    19     5     6   ar
    20     6    19    1
    21    19    20    2
    22    20    21   ar
    23    21    22   ar
    24    22    25    1
    25    25    26   ar
    26    26    27   ar
    27    27    28   ar
    28    28    29   ar
    29    29    30   ar
    30    22    23   ar
    31    23    24   ar
    32    24    31    1
    33    31    32   ar
    34    32    33   ar
    35    33    34   ar
    36    34    35   ar
    37    35    36   ar
    38     6     1   ar
    39    24    20   ar
    40    36    31   ar
    41    12     7   ar
    42    18    13   ar
    43    30    25   ar
@<TRIPOS>MOLECULE
*****
 38 43 0 0 0
SMALL
GASTEIGER

@<TRIPOS>ATOM
      1 C         139.2342  143.5817  157.1051 C.ar    1  UNL1        0.1042
      2 C         138.4831  143.9262  155.8533 C.ar    1  UNL1        0.0141
      3 C         138.5048  145.3311  155.3282 C.ar    1  UNL1        0.0199
      4 C         139.2776  146.3916  156.0549 C.ar    1  UNL1        0.0830
      5 N         140.0287  146.0471  157.3067 N.ar    1  UNL1       -0.2259
      6 C         140.0070  144.6422  157.8318 C.ar    1  UNL1        0.1740
      7 C         137.7102  142.8657  155.1265 C.ar    1  UNL1        0.0008
      8 C         138.4029  141.9811  154.1328 C.ar    1  UNL1        0.0000
      9 C         137.6300  140.9206  153.4060 C.ar    1  UNL1        0.0000
     10 C         136.1645  140.7448  153.6730 C.ar    1  UNL1        0.0000
     11 C         135.4718  141.6296  154.6667 C.ar    1  UNL1        0.0000
     12 C         136.2447  142.6900  155.3935 C.ar    1  UNL1        0.0000
     13 C         139.2993  147.7965  155.5298 C.ar    1  UNL1        0.0177
     14 C         140.0325  148.1112  154.2596 C.ar    1  UNL1        0.0015
     15 C         140.0542  149.5161  153.7345 C.ar    1  UNL1        0.0000
     16 C         139.3427  150.6063  154.4795 C.ar    1  UNL1        0.0000
     17 C         138.6094  150.2916  155.7496 C.ar    1  UNL1        0.0000
     18 C         138.5877  148.8867  156.2748 C.ar    1  UNL1        0.0015
     19 N         140.7581  144.2978  159.0837 N.2     1  UNL1       -0.2011
     20 C         142.1317  143.7018  158.9943 C.ar    1  UNL1        0.1981
     21 S         142.8790  143.3948  157.7304 S.2     1  UNL1       -0.0278
     22 C         144.2083  142.8114  158.1079 C.ar    1  UNL1        0.1335
     23 N         144.2826  142.7578  159.6052 N.ar    1  UNL1       -0.1567
     24 N         142.9991  143.3081  160.1529 N.ar    1  UNL1       -0.2062
     25 C         145.2759  142.3607  157.1555 C.ar    1  UNL1        0.0256
     26 C         146.6921  142.8170  157.3458 C.ar    1  UNL1        0.0021
     27 C         147.7597  142.3663  156.3934 C.ar    1  UNL1        0.0001
     28 C         147.4111  141.4593  155.2507 C.ar    1  UNL1        0.0000
     29 C         145.9950  141.0030  155.0604 C.ar    1  UNL1        0.0001
     30 C         144.9274  141.4537  156.0128 C.ar    1  UNL1        0.0021
     31 C         142.6454  143.4413  161.6045 C.ar    1  UNL1        0.0849
     32 C         141.5794  142.5698  162.1996 C.ar    1  UNL1        0.0192
     33 C         141.2256  142.7030  163.6512 C.ar    1  UNL1        0.0015
     34 C         141.9377  143.7076  164.5077 C.ar    1  UNL1        0.0001
     35 C         143.0036  144.5792  163.9125 C.ar    1  UNL1        0.0015
     36 C         143.3574  144.4460  162.4610 C.ar    1  UNL1        0.0192
     37 N         139.1908  140.7719  158.1553 N.1     1  UNL1       -0.1907
     38 C         139.2125  142.1768  157.6302 C.1     1  UNL1        0.1035
@<TRIPOS>BOND
     1    37    38    3
     2    38     1    1
     3     1     2   ar
     4     2     7    1
     5     7     8   ar
     6     8     9   ar
     7     9    10   ar
     8    10    11   ar
     9    11    12   ar
    10     2     3   ar
    11     3     4   ar
    12     4    13    1
    13    13    14   ar
    14    14    15   ar
    15    15    16   ar
    16    16    17   ar
    17    17    18   ar
    18     4     5   ar
    19     5     6   ar
    20     6    19    1
    21    19    20    2
    22    20    21   ar
    23    21    22   ar
    24    22    25    1
    25    25    26   ar
    26    26    27   ar
    27    27    28   ar
    28    28    29   ar
    29    29    30   ar
    30    22    23   ar
    31    23    24   ar
    32    24    31    1
    33    31    32   ar
    34    32    33   ar
    35    33    34   ar
    36    34    35   ar
    37    35    36   ar
    38     6     1   ar
    39    24    20   ar
    40    36    31   ar
    41    12     7   ar
    42    18    13   ar
    43    30    25   ar
@<TRIPOS>MOLECULE
*****
 38 43 0 0 0
SMALL
GASTEIGER

@<TRIPOS>ATOM
      1 C         143.6694  140.3001  155.4924 C.ar    1  UNL1        0.1042
      2 C         144.7287  141.0986  156.1926 C.ar    1  UNL1        0.0141
      3 C         144.7687  141.1401  157.6915 C.ar    1  UNL1        0.0199
      4 C         143.7494  140.3832  158.4902 C.ar    1  UNL1        0.0830
      5 N         142.6901  139.5847  157.7901 N.ar    1  UNL1       -0.2259
      6 C         142.6501  139.5432  156.2912 C.ar    1  UNL1        0.1740
      7 C         145.7481  141.8556  155.3939 C.ar    1  UNL1        0.0008
      8 C         147.1623  141.3608  155.3212 C.ar    1  UNL1        0.0000
      9 C         148.1816  142.1178  154.5225 C.ar    1  UNL1        0.0000
     10 C         147.7868  143.3696  153.7965 C.ar    1  UNL1        0.0000
     11 C         146.3726  143.8644  153.8692 C.ar    1  UNL1        0.0000
     12 C         145.3533  143.1074  154.6679 C.ar    1  UNL1        0.0000
     13 C         143.7894  140.4247  159.9891 C.ar    1  UNL1        0.0177
     14 C         143.5916  141.7257  160.7089 C.ar    1  UNL1        0.0015
     15 C         143.6316  141.7673  162.2078 C.ar    1  UNL1        0.0000
     16 C         143.8694  140.5078  162.9869 C.ar    1  UNL1        0.0000
     17 C         144.0672  139.2067  162.2671 C.ar    1  UNL1        0.0000
     18 C         144.0272  139.1652  160.7682 C.ar    1  UNL1        0.0015
     19 N         141.5908  138.7446  155.5910 N.2     1  UNL1       -0.2011
     20 C         141.7008  137.2503  155.5219 C.ar    1  UNL1        0.1981
     21 S         142.8066  136.4199  156.1030 S.2     1  UNL1       -0.0278
     22 C         142.5137  134.9803  155.7998 C.ar    1  UNL1        0.1335
     23 N         141.2268  134.9211  155.0312 N.ar    1  UNL1       -0.1567
     24 N         140.7245  136.3240  154.8595 N.ar    1  UNL1       -0.2062
     25 C         143.3591  133.8062  156.1956 C.ar    1  UNL1        0.0256
     26 C         143.5339  132.6551  155.2498 C.ar    1  UNL1        0.0021
     27 C         144.3793  131.4810  155.6456 C.ar    1  UNL1        0.0001
     28 C         145.0499  131.4579  156.9872 C.ar    1  UNL1        0.0000
     29 C         144.8750  132.6090  157.9329 C.ar    1  UNL1        0.0001
     30 C         144.0296  133.7831  157.5371 C.ar    1  UNL1        0.0021
     31 C         139.4667  136.7294  154.1499 C.ar    1  UNL1        0.0849
     32 C         139.3220  136.4792  152.6780 C.ar    1  UNL1        0.0192
     33 C         138.0642  136.8846  151.9685 C.ar    1  UNL1        0.0015
     34 C         136.9510  137.5402  152.7306 C.ar    1  UNL1        0.0001
     35 C         137.0957  137.7905  154.2026 C.ar    1  UNL1        0.0015
     36 C         138.3535  137.3851  154.9122 C.ar    1  UNL1        0.0192
     37 N         143.5894  140.2170  152.4947 N.1     1  UNL1       -0.1907
     38 C         143.6294  140.2586  153.9936 C.1     1  UNL1        0.1035
@<TRIPOS>BOND
     1    37    38    3
     2    38     1    1
     3     1     2   ar
     4     2     7    1
     5     7     8   ar
     6     8     9   ar
     7     9    10   ar
     8    10    11   ar
     9    11    12   ar
    10     2     3   ar
    11     3     4   ar
    12     4    13    1
    13    13    14   ar
    14    14    15   ar
    15    15    16   ar
    16    16    17   ar
    17    17    18   ar
    18     4     5   ar
    19     5     6   ar
    20     6    19    1
    21    19    20    2
    22    20    21   ar
    23    21    22   ar
    24    22    25    1
    25    25    26   ar
    26    26    27   ar
    27    27    28   ar
    28    28    29   ar
    29    29    30   ar
    30    22    23   ar
    31    23    24   ar
    32    24    31    1
    33    31    32   ar
    34    32    33   ar
    35    33    34   ar
    36    34    35   ar
    37    35    36   ar
    38     6     1   ar
    39    24    20   ar
    40    36    31   ar
    41    12     7   ar
    42    18    13   ar
    43    30    25   ar
@<TRIPOS>MOLECULE
*****
 38 43 0 0 0
SMALL
GASTEIGER

@<TRIPOS>ATOM
      1 C         139.7373  143.3469  155.4902 C.ar    1  UNL1        0.1042
      2 C         138.3953  143.9414  155.1812 C.ar    1  UNL1        0.0141
      3 C         138.2133  145.4303  155.1954 C.ar    1  UNL1        0.0199
      4 C         139.3733  146.3246  155.5187 C.ar    1  UNL1        0.0830
      5 N         140.7153  145.7300  155.8277 N.ar    1  UNL1       -0.2259
      6 C         140.8973  144.2412  155.8134 C.ar    1  UNL1        0.1740
      7 C         137.2352  143.0471  154.8579 C.ar    1  UNL1        0.0008
      8 C         136.7388  142.9433  153.4463 C.ar    1  UNL1        0.0000
      9 C         135.5787  142.0490  153.1230 C.ar    1  UNL1        0.0000
     10 C         134.9150  141.2585  154.2114 C.ar    1  UNL1        0.0000
     11 C         135.4115  141.3623  155.6231 C.ar    1  UNL1        0.0000
     12 C         136.5716  142.2566  155.9463 C.ar    1  UNL1        0.0000
     13 C         139.1913  147.8134  155.5329 C.ar    1  UNL1        0.0177
     14 C         139.6344  148.6344  154.3584 C.ar    1  UNL1        0.0015
     15 C         139.4525  150.1233  154.3726 C.ar    1  UNL1        0.0000
     16 C         138.8274  150.7911  155.5614 C.ar    1  UNL1        0.0000
     17 C         138.3843  149.9701  156.7359 C.ar    1  UNL1        0.0000
     18 C         138.5663  148.4813  156.7217 C.ar    1  UNL1        0.0015
     19 N         142.2394  143.6467  156.1225 N.2     1  UNL1       -0.2011
     20 C         142.6506  143.4234  157.5476 C.ar    1  UNL1        0.1981
     21 S         141.8307  143.7432  158.7623 S.2     1  UNL1       -0.0278
     22 C         142.6272  143.3586  159.9737 C.ar    1  UNL1        0.1335
     23 N         143.9395  142.8010  159.5076 N.ar    1  UNL1       -0.1567
     24 N         143.9539  142.8411  158.0083 N.ar    1  UNL1       -0.2062
     25 C         142.1886  143.5057  161.4006 C.ar    1  UNL1        0.0256
     26 C         142.2827  142.3386  162.3382 C.ar    1  UNL1        0.0021
     27 C         141.8441  142.4857  163.7651 C.ar    1  UNL1        0.0001
     28 C         141.3114  143.7998  164.2543 C.ar    1  UNL1        0.0000
     29 C         141.2174  144.9668  163.3167 C.ar    1  UNL1        0.0001
     30 C         141.6560  144.8197  161.8898 C.ar    1  UNL1        0.0021
     31 C         145.0748  142.3798  157.1247 C.ar    1  UNL1        0.0849
     32 C         146.4705  142.8747  157.3638 C.ar    1  UNL1        0.0192
     33 C         147.5914  142.4134  156.4802 C.ar    1  UNL1        0.0015
     34 C         147.3169  141.4573  155.3576 C.ar    1  UNL1        0.0001
     35 C         145.9211  140.9623  155.1185 C.ar    1  UNL1        0.0015
     36 C         144.8002  141.4236  156.0021 C.ar    1  UNL1        0.0192
     37 N         140.1012  140.3692  155.4617 N.1     1  UNL1       -0.1907
     38 C         139.9193  141.8580  155.4760 C.1     1  UNL1        0.1035
@<TRIPOS>BOND
     1    37    38    3
     2    38     1    1
     3     1     2   ar
     4     2     7    1
     5     7     8   ar
     6     8     9   ar
     7     9    10   ar
     8    10    11   ar
     9    11    12   ar
    10     2     3   ar
    11     3     4   ar
    12     4    13    1
    13    13    14   ar
    14    14    15   ar
    15    15    16   ar
    16    16    17   ar
    17    17    18   ar
    18     4     5   ar
    19     5     6   ar
    20     6    19    1
    21    19    20    2
    22    20    21   ar
    23    21    22   ar
    24    22    25    1
    25    25    26   ar
    26    26    27   ar
    27    27    28   ar
    28    28    29   ar
    29    29    30   ar
    30    22    23   ar
    31    23    24   ar
    32    24    31    1
    33    31    32   ar
    34    32    33   ar
    35    33    34   ar
    36    34    35   ar
    37    35    36   ar
    38     6     1   ar
    39    24    20   ar
    40    36    31   ar
    41    12     7   ar
    42    18    13   ar
    43    30    25   ar
@<TRIPOS>MOLECULE
*****
 38 43 0 0 0
SMALL
GASTEIGER

@<TRIPOS>ATOM
      1 C         142.4928  140.1069  155.2689 C.ar    1  UNL1        0.1042
      2 C         143.8774  139.5302  155.2855 C.ar    1  UNL1        0.0141
      3 C         144.0701  138.0432  155.3271 C.ar    1  UNL1        0.0199
      4 C         142.8781  137.1329  155.3521 C.ar    1  UNL1        0.0830
      5 N         141.4936  137.7096  155.3355 N.ar    1  UNL1       -0.2259
      6 C         141.3009  139.1966  155.2939 C.ar    1  UNL1        0.1740
      7 C         145.0694  140.4405  155.2606 C.ar    1  UNL1        0.0008
      8 C         145.5334  141.1035  156.5235 C.ar    1  UNL1        0.0000
      9 C         146.7254  142.0138  156.4986 C.ar    1  UNL1        0.0000
     10 C         147.4534  142.2610  155.2106 C.ar    1  UNL1        0.0000
     11 C         146.9894  141.5979  153.9476 C.ar    1  UNL1        0.0000
     12 C         145.7974  140.6877  153.9726 C.ar    1  UNL1        0.0000
     13 C         143.0708  135.6459  155.3937 C.ar    1  UNL1        0.0177
     14 C         143.7315  135.0081  156.5797 C.ar    1  UNL1        0.0015
     15 C         143.9242  133.5211  156.6213 C.ar    1  UNL1        0.0000
     16 C         143.4561  132.6719  155.4769 C.ar    1  UNL1        0.0000
     17 C         142.7954  133.3097  154.2909 C.ar    1  UNL1        0.0000
     18 C         142.6027  134.7967  154.2493 C.ar    1  UNL1        0.0015
     19 N         139.9163  139.7733  155.2773 N.2     1  UNL1       -0.2011
     20 C         139.1329  139.8800  156.5520 C.ar    1  UNL1        0.1981
     21 S         139.6000  139.4539  157.9123 S.2     1  UNL1       -0.0278
     22 C         138.5007  139.7421  158.8913 C.ar    1  UNL1        0.1335
     23 N         137.3542  140.3464  158.1360 N.ar    1  UNL1       -0.1567
     24 N         137.7449  140.4316  156.6903 N.ar    1  UNL1       -0.2062
     25 C         138.5409  139.4732  160.3664 C.ar    1  UNL1        0.0256
     26 C         139.2608  138.2656  160.8893 C.ar    1  UNL1        0.0021
     27 C         139.3009  137.9967  162.3645 C.ar    1  UNL1        0.0001
     28 C         138.6212  138.9355  163.3167 C.ar    1  UNL1        0.0000
     29 C         137.9013  140.1430  162.7938 C.ar    1  UNL1        0.0001
     30 C         137.8612  140.4119  161.3186 C.ar    1  UNL1        0.0021
     31 C         136.8966  140.9734  155.5782 C.ar    1  UNL1        0.0849
     32 C         135.8590  140.1025  154.9340 C.ar    1  UNL1        0.0192
     33 C         135.0106  140.6443  153.8219 C.ar    1  UNL1        0.0015
     34 C         135.1997  142.0568  153.3540 C.ar    1  UNL1        0.0001
     35 C         136.2373  142.9277  153.9982 C.ar    1  UNL1        0.0015
     36 C         137.0857  142.3860  155.1103 C.ar    1  UNL1        0.0192
     37 N         142.1075  143.0809  155.1858 N.1     1  UNL1       -0.1907
     38 C         142.3002  141.5939  155.2274 C.1     1  UNL1        0.1035
@<TRIPOS>BOND
     1    37    38    3
     2    38     1    1
     3     1     2   ar
     4     2     7    1
     5     7     8   ar
     6     8     9   ar
     7     9    10   ar
     8    10    11   ar
     9    11    12   ar
    10     2     3   ar
    11     3     4   ar
    12     4    13    1
    13    13    14   ar
    14    14    15   ar
    15    15    16   ar
    16    16    17   ar
    17    17    18   ar
    18     4     5   ar
    19     5     6   ar
    20     6    19    1
    21    19    20    2
    22    20    21   ar
    23    21    22   ar
    24    22    25    1
    25    25    26   ar
    26    26    27   ar
    27    27    28   ar
    28    28    29   ar
    29    29    30   ar
    30    22    23   ar
    31    23    24   ar
    32    24    31    1
    33    31    32   ar
    34    32    33   ar
    35    33    34   ar
    36    34    35   ar
    37    35    36   ar
    38     6     1   ar
    39    24    20   ar
    40    36    31   ar
    41    12     7   ar
    42    18    13   ar
    43    30    25   ar
