@<TRIPOS>MOLECULE
*****
 30 33 0 0 0
SMALL
GASTEIGER

@<TRIPOS>ATOM
      1 C         140.8113  138.1124  162.2067 C.ar    1  UNL1       -0.0085
      2 C         141.7823  137.8973  163.3295 C.ar    1  UNL1       -0.0032
      3 C         141.2788  137.5716  164.7044 C.ar    1  UNL1       -0.0003
      4 C         139.8044  137.4610  164.9565 C.ar    1  UNL1       -0.0003
      5 C         138.8332  137.6761  163.8336 C.ar    1  UNL1       -0.0029
      6 C         139.3367  138.0017  162.4587 C.ar    1  UNL1       -0.0053
      7 C         141.3148  138.4380  160.8317 C.3     1  UNL1        0.0992
      8 C         143.7709  139.2538  160.6035 C.3     1  UNL1        0.0902
      9 N         142.3011  139.5514  160.6384 N.3     1  UNL1       -0.2626
     10 C         141.8177  140.9625  160.4800 C.3     1  UNL1        0.1189
     11 C         141.9269  141.9257  161.6248 C.ar    1  UNL1        0.0752
     12 C         141.6178  141.4703  163.0201 C.ar    1  UNL1        0.0161
     13 C         141.7270  142.4334  164.1649 C.ar    1  UNL1        0.0028
     14 C         142.1452  143.8519  163.9142 C.ar    1  UNL1        0.0207
     15 C         142.4543  144.3073  162.5188 C.ar    1  UNL1        0.0985
     16 N         142.3451  143.3442  161.3741 N.ar    1  UNL1       -0.2468
     17 C         138.3657  138.2168  161.3359 C.3     1  UNL1        0.1140
     18 N         137.4087  139.3709  161.3826 N.pl3   1  UNL1       -0.3290
     19 H         136.4710  139.2225  161.6434 H       1  UNL1        0.1471
     20 C         137.8803  140.7510  161.0320 C.ar    1  UNL1        0.0478
     21 C         138.1976  141.0958  159.6071 C.ar    1  UNL1        0.0350
     22 C         138.6692  142.4759  159.2566 C.ar    1  UNL1        0.1001
     23 N         138.8235  143.5112  160.3310 N.ar    1  UNL1       -0.2437
     24 C         138.5061  143.1664  161.7559 C.ar    1  UNL1        0.0833
     25 C         138.6603  144.2018  162.8303 C.ar    1  UNL1        0.0305
     26 C         138.3430  143.8570  164.2552 C.ar    1  UNL1        0.0592
     27 CL        138.4972  144.8923  165.3296 Cl      1  UNL1       -0.0822
     28 C         137.8714  142.4769  164.6058 C.ar    1  UNL1        0.0115
     29 C         137.7171  141.4415  163.5314 C.ar    1  UNL1        0.0036
     30 C         138.0345  141.7863  162.1064 C.ar    1  UNL1        0.0309
@<TRIPOS>BOND
     1     8     9    1
     2     9    10    1
     3    10    11    1
     4    11    12   ar
     5    12    13   ar
     6    13    14   ar
     7    14    15   ar
     8    15    16   ar
     9     9     7    1
    10     7     1    1
    11     1     2   ar
    12     2     3   ar
    13     3     4   ar
    14     4     5   ar
    15     5     6   ar
    16     6    17    1
    17    17    18    1
    18    18    20    1
    19    20    21   ar
    20    21    22   ar
    21    22    23   ar
    22    23    24   ar
    23    24    25   ar
    24    25    26   ar
    25    26    27    1
    26    26    28   ar
    27    28    29   ar
    28    29    30   ar
    29    16    11   ar
    30     6     1   ar
    31    30    20   ar
    32    30    24   ar
    33    18    19    1
@<TRIPOS>MOLECULE
*****
 30 33 0 0 0
SMALL
GASTEIGER

@<TRIPOS>ATOM
      1 C         138.6315  139.3590  163.1153 C.ar    1  UNL1       -0.0085
      2 C         139.1581  138.0152  163.5236 C.ar    1  UNL1       -0.0032
      3 C         139.1318  137.6062  164.9665 C.ar    1  UNL1       -0.0003
      4 C         138.5789  138.5410  166.0011 C.ar    1  UNL1       -0.0003
      5 C         138.0523  139.8849  165.5928 C.ar    1  UNL1       -0.0029
      6 C         138.0786  140.2939  164.1499 C.ar    1  UNL1       -0.0053
      7 C         138.6578  139.7681  161.6724 C.3     1  UNL1        0.0992
      8 C         140.4277  139.1775  159.8645 C.3     1  UNL1        0.0902
      9 N         139.9670  140.0479  160.9959 N.3     1  UNL1       -0.2626
     10 C         140.8155  141.1981  161.4508 C.3     1  UNL1        0.1189
     11 C         142.1609  140.9418  162.0627 C.ar    1  UNL1        0.0752
     12 C         142.3085  139.9160  163.1471 C.ar    1  UNL1        0.0161
     13 C         143.6538  139.6596  163.7589 C.ar    1  UNL1        0.0028
     14 C         144.8515  140.4291  163.2863 C.ar    1  UNL1        0.0207
     15 C         144.7039  141.4549  162.2019 C.ar    1  UNL1        0.0985
     16 N         143.3586  141.7112  161.5901 N.ar    1  UNL1       -0.2468
     17 C         137.5520  141.6377  163.7416 C.3     1  UNL1        0.1140
     18 N         138.0054  142.8719  164.4636 N.pl3   1  UNL1       -0.3290
     19 H         137.6377  143.0859  165.3514 H       1  UNL1        0.1471
     20 C         139.0191  143.7801  163.8328 C.ar    1  UNL1        0.0478
     21 C         138.5888  144.7876  162.8083 C.ar    1  UNL1        0.0350
     22 C         139.6024  145.6957  162.1776 C.ar    1  UNL1        0.1001
     23 N         141.0464  145.5962  162.5713 N.ar    1  UNL1       -0.2437
     24 C         141.4767  144.5886  163.5958 C.ar    1  UNL1        0.0833
     25 C         142.9207  144.4891  163.9895 C.ar    1  UNL1        0.0305
     26 C         143.3510  143.4816  165.0140 C.ar    1  UNL1        0.0592
     27 CL        144.7950  143.3821  165.4077 Cl      1  UNL1       -0.0822
     28 C         142.3373  142.5734  165.6448 C.ar    1  UNL1        0.0115
     29 C         140.8934  142.6729  165.2510 C.ar    1  UNL1        0.0036
     30 C         140.4631  143.6806  164.2265 C.ar    1  UNL1        0.0309
@<TRIPOS>BOND
     1     8     9    1
     2     9    10    1
     3    10    11    1
     4    11    12   ar
     5    12    13   ar
     6    13    14   ar
     7    14    15   ar
     8    15    16   ar
     9     9     7    1
    10     7     1    1
    11     1     2   ar
    12     2     3   ar
    13     3     4   ar
    14     4     5   ar
    15     5     6   ar
    16     6    17    1
    17    17    18    1
    18    18    20    1
    19    20    21   ar
    20    21    22   ar
    21    22    23   ar
    22    23    24   ar
    23    24    25   ar
    24    25    26   ar
    25    26    27    1
    26    26    28   ar
    27    28    29   ar
    28    29    30   ar
    29    16    11   ar
    30     6     1   ar
    31    30    20   ar
    32    30    24   ar
    33    18    19    1
@<TRIPOS>MOLECULE
*****
 30 33 0 0 0
SMALL
GASTEIGER

@<TRIPOS>ATOM
      1 C         143.5482  141.9162  162.8132 C.ar    1  UNL1       -0.0085
      2 C         145.0283  141.9194  163.0564 C.ar    1  UNL1       -0.0032
      3 C         145.6467  140.8711  163.9331 C.ar    1  UNL1       -0.0003
      4 C         144.7849  139.8196  164.5668 C.ar    1  UNL1       -0.0003
      5 C         143.3046  139.8163  164.3236 C.ar    1  UNL1       -0.0029
      6 C         142.6863  140.8646  163.4468 C.ar    1  UNL1       -0.0053
      7 C         142.9299  142.9645  161.9364 C.3     1  UNL1        0.0992
      8 C         143.5573  145.0115  163.4081 C.3     1  UNL1        0.0902
      9 N         142.5877  144.3102  162.5037 N.3     1  UNL1       -0.2626
     10 C         141.2758  144.9546  162.1665 C.3     1  UNL1        0.1189
     11 C         140.0500  144.6229  162.9650 C.ar    1  UNL1        0.0752
     12 C         139.9805  144.9870  164.4185 C.ar    1  UNL1        0.0161
     13 C         138.7548  144.6553  165.2169 C.ar    1  UNL1        0.0028
     14 C         137.5986  143.9596  164.5619 C.ar    1  UNL1        0.0207
     15 C         137.6682  143.5955  163.1084 C.ar    1  UNL1        0.0985
     16 N         138.8939  143.9271  162.3100 N.ar    1  UNL1       -0.2468
     17 C         141.2062  140.8613  163.2037 C.3     1  UNL1        0.1140
     18 N         140.2807  141.4914  164.2020 N.pl3   1  UNL1       -0.3290
     19 H         140.0717  142.4516  164.1418 H       1  UNL1        0.1471
     20 C         139.6738  140.6585  165.2919 C.ar    1  UNL1        0.0478
     21 C         138.8315  139.4669  164.9446 C.ar    1  UNL1        0.0350
     22 C         138.2246  138.6341  166.0345 C.ar    1  UNL1        0.1001
     23 N         138.4600  138.9928  167.4718 N.ar    1  UNL1       -0.2437
     24 C         139.3023  140.1843  167.8192 C.ar    1  UNL1        0.0833
     25 C         139.5377  140.5431  169.2565 C.ar    1  UNL1        0.0305
     26 C         140.3800  141.7346  169.6039 C.ar    1  UNL1        0.0592
     27 CL        140.6154  142.0933  171.0413 Cl      1  UNL1       -0.0822
     28 C         140.9870  142.5675  168.5140 C.ar    1  UNL1        0.0115
     29 C         140.7515  142.2088  167.0766 C.ar    1  UNL1        0.0036
     30 C         139.9092  141.0172  166.7293 C.ar    1  UNL1        0.0309
@<TRIPOS>BOND
     1     8     9    1
     2     9    10    1
     3    10    11    1
     4    11    12   ar
     5    12    13   ar
     6    13    14   ar
     7    14    15   ar
     8    15    16   ar
     9     9     7    1
    10     7     1    1
    11     1     2   ar
    12     2     3   ar
    13     3     4   ar
    14     4     5   ar
    15     5     6   ar
    16     6    17    1
    17    17    18    1
    18    18    20    1
    19    20    21   ar
    20    21    22   ar
    21    22    23   ar
    22    23    24   ar
    23    24    25   ar
    24    25    26   ar
    25    26    27    1
    26    26    28   ar
    27    28    29   ar
    28    29    30   ar
    29    16    11   ar
    30     6     1   ar
    31    30    20   ar
    32    30    24   ar
    33    18    19    1
@<TRIPOS>MOLECULE
*****
 30 33 0 0 0
SMALL
GASTEIGER

@<TRIPOS>ATOM
      1 C         143.1384  142.9158  164.6845 C.ar    1  UNL1       -0.0085
      2 C         143.9675  144.1643  164.6238 C.ar    1  UNL1       -0.0032
      3 C         143.4396  145.3820  163.9249 C.ar    1  UNL1       -0.0003
      4 C         142.0825  145.3512  163.2867 C.ar    1  UNL1       -0.0003
      5 C         141.2533  144.1026  163.3473 C.ar    1  UNL1       -0.0029
      6 C         141.7812  142.8849  164.0463 C.ar    1  UNL1       -0.0053
      7 C         143.6663  141.6981  165.3834 C.3     1  UNL1        0.0992
      8 C         145.6572  141.2602  163.7726 C.3     1  UNL1        0.0902
      9 N         144.5577  140.7399  164.6504 N.3     1  UNL1       -0.2626
     10 C         144.3495  139.2615  164.7951 C.3     1  UNL1        0.1189
     11 C         143.1240  138.6167  164.2187 C.ar    1  UNL1        0.0752
     12 C         142.0987  138.0075  165.1285 C.ar    1  UNL1        0.0161
     13 C         140.8732  137.3627  164.5522 C.ar    1  UNL1        0.0028
     14 C         140.6729  137.3269  163.0660 C.ar    1  UNL1        0.0207
     15 C         141.6982  137.9361  162.1563 C.ar    1  UNL1        0.0985
     16 N         142.9237  138.5810  162.7326 N.ar    1  UNL1       -0.2468
     17 C         140.9521  141.6364  164.1070 C.3     1  UNL1        0.1140
     18 N         139.5582  141.6879  164.6588 N.pl3   1  UNL1       -0.3290
     19 H         138.9001  142.3122  164.2764 H       1  UNL1        0.1471
     20 C         139.1671  140.7879  165.7934 C.ar    1  UNL1        0.0478
     21 C         138.2511  139.6259  165.5475 C.ar    1  UNL1        0.0350
     22 C         137.8600  138.7260  166.6821 C.ar    1  UNL1        0.1001
     23 N         138.3850  138.9881  168.0625 N.ar    1  UNL1       -0.2437
     24 C         139.3010  140.1502  168.3084 C.ar    1  UNL1        0.0833
     25 C         139.8260  140.4123  169.6889 C.ar    1  UNL1        0.0305
     26 C         140.7421  141.5743  169.9348 C.ar    1  UNL1        0.0592
     27 CL        141.2671  141.8365  171.3153 Cl      1  UNL1       -0.0822
     28 C         141.1332  142.4743  168.8002 C.ar    1  UNL1        0.0115
     29 C         140.6082  142.2121  167.4198 C.ar    1  UNL1        0.0036
     30 C         139.6921  141.0500  167.1739 C.ar    1  UNL1        0.0309
@<TRIPOS>BOND
     1     8     9    1
     2     9    10    1
     3    10    11    1
     4    11    12   ar
     5    12    13   ar
     6    13    14   ar
     7    14    15   ar
     8    15    16   ar
     9     9     7    1
    10     7     1    1
    11     1     2   ar
    12     2     3   ar
    13     3     4   ar
    14     4     5   ar
    15     5     6   ar
    16     6    17    1
    17    17    18    1
    18    18    20    1
    19    20    21   ar
    20    21    22   ar
    21    22    23   ar
    22    23    24   ar
    23    24    25   ar
    24    25    26   ar
    25    26    27    1
    26    26    28   ar
    27    28    29   ar
    28    29    30   ar
    29    16    11   ar
    30     6     1   ar
    31    30    20   ar
    32    30    24   ar
    33    18    19    1
@<TRIPOS>MOLECULE
*****
 30 33 0 0 0
SMALL
GASTEIGER

@<TRIPOS>ATOM
      1 C         139.2675  141.3410  165.8494 C.ar    1  UNL1       -0.0085
      2 C         140.0861  142.4417  166.4560 C.ar    1  UNL1       -0.0032
      3 C         140.5947  142.3113  167.8611 C.ar    1  UNL1       -0.0003
      4 C         140.2845  141.0800  168.6596 C.ar    1  UNL1       -0.0003
      5 C         139.4658  139.9791  168.0530 C.ar    1  UNL1       -0.0029
      6 C         138.9573  140.1096  166.6479 C.ar    1  UNL1       -0.0053
      7 C         138.7590  141.4715  164.4443 C.3     1  UNL1        0.0992
      8 C         137.9028  143.8727  163.9436 C.3     1  UNL1        0.0902
      9 N         138.8982  142.7744  163.7142 N.3     1  UNL1       -0.2626
     10 C         140.0329  142.9789  162.7548 C.3     1  UNL1        0.1189
     11 C         141.3814  143.3929  163.2652 C.ar    1  UNL1        0.0752
     12 C         142.3588  142.3541  163.7294 C.ar    1  UNL1        0.0161
     13 C         143.7072  142.7680  164.2398 C.ar    1  UNL1        0.0028
     14 C         144.0781  144.2207  164.2860 C.ar    1  UNL1        0.0207
     15 C         143.1006  145.2594  163.8218 C.ar    1  UNL1        0.0985
     16 N         141.7522  144.8455  163.3114 N.ar    1  UNL1       -0.2468
     17 C         138.1386  139.0088  166.0413 C.3     1  UNL1        0.1140
     18 N         138.8176  137.8245  165.4195 N.pl3   1  UNL1       -0.3290
     19 H         138.7565  136.9407  165.8488 H       1  UNL1        0.1471
     20 C         139.5895  137.9870  164.1436 C.ar    1  UNL1        0.0478
     21 C         138.9051  137.7928  162.8231 C.ar    1  UNL1        0.0350
     22 C         139.6770  137.9553  161.5473 C.ar    1  UNL1        0.1001
     23 N         141.1333  138.3119  161.5921 N.ar    1  UNL1       -0.2437
     24 C         141.8177  138.5061  162.9126 C.ar    1  UNL1        0.0833
     25 C         143.2740  138.8627  162.9573 C.ar    1  UNL1        0.0305
     26 C         143.9584  139.0569  164.2779 C.ar    1  UNL1        0.0592
     27 CL        145.4147  139.4136  164.3226 Cl      1  UNL1       -0.0822
     28 C         143.1865  138.8945  165.5538 C.ar    1  UNL1        0.0115
     29 C         141.7302  138.5378  165.5090 C.ar    1  UNL1        0.0036
     30 C         141.0458  138.3436  164.1884 C.ar    1  UNL1        0.0309
@<TRIPOS>BOND
     1     8     9    1
     2     9    10    1
     3    10    11    1
     4    11    12   ar
     5    12    13   ar
     6    13    14   ar
     7    14    15   ar
     8    15    16   ar
     9     9     7    1
    10     7     1    1
    11     1     2   ar
    12     2     3   ar
    13     3     4   ar
    14     4     5   ar
    15     5     6   ar
    16     6    17    1
    17    17    18    1
    18    18    20    1
    19    20    21   ar
    20    21    22   ar
    21    22    23   ar
    22    23    24   ar
    23    24    25   ar
    24    25    26   ar
    25    26    27    1
    26    26    28   ar
    27    28    29   ar
    28    29    30   ar
    29    16    11   ar
    30     6     1   ar
    31    30    20   ar
    32    30    24   ar
    33    18    19    1
@<TRIPOS>MOLECULE
*****
 30 33 0 0 0
SMALL
GASTEIGER

@<TRIPOS>ATOM
      1 C         143.0397  138.5502  162.9477 C.ar    1  UNL1       -0.0085
      2 C         144.2907  139.1856  163.4781 C.ar    1  UNL1       -0.0032
      3 C         144.5204  139.2684  164.9581 C.ar    1  UNL1       -0.0003
      4 C         143.4992  138.7157  165.9077 C.ar    1  UNL1       -0.0003
      5 C         142.2482  138.0802  165.3773 C.ar    1  UNL1       -0.0029
      6 C         142.0185  137.9975  163.8973 C.ar    1  UNL1       -0.0053
      7 C         142.8100  138.4675  161.4677 C.3     1  UNL1        0.0992
      8 C         143.5976  140.1574  159.6583 C.3     1  UNL1        0.0902
      9 N         142.5833  139.7192  160.6728 N.3     1  UNL1       -0.2626
     10 C         141.3424  140.5327  160.8924 C.3     1  UNL1        0.1189
     11 C         141.4386  141.8946  161.5138 C.ar    1  UNL1        0.0752
     12 C         142.1578  142.0749  162.8177 C.ar    1  UNL1        0.0161
     13 C         142.2540  143.4367  163.4391 C.ar    1  UNL1        0.0028
     14 C         141.6310  144.6182  162.7566 C.ar    1  UNL1        0.0207
     15 C         140.9117  144.4379  161.4527 C.ar    1  UNL1        0.0985
     16 N         140.8155  143.0761  160.8313 N.ar    1  UNL1       -0.2468
     17 C         140.7676  137.3621  163.3668 C.3     1  UNL1        0.1140
     18 N         139.4253  137.8626  163.8118 N.pl3   1  UNL1       -0.3290
     19 H         138.9726  137.4422  164.5783 H       1  UNL1        0.1471
     20 C         138.7730  139.0036  163.0888 C.ar    1  UNL1        0.0478
     21 C         138.0855  138.7654  161.7771 C.ar    1  UNL1        0.0350
     22 C         137.4332  139.9064  161.0542 C.ar    1  UNL1        0.1001
     23 N         137.4683  141.2856  161.6431 N.ar    1  UNL1       -0.2437
     24 C         138.1557  141.5237  162.9548 C.ar    1  UNL1        0.0833
     25 C         138.1908  142.9029  163.5436 C.ar    1  UNL1        0.0305
     26 C         138.8783  143.1410  164.8554 C.ar    1  UNL1        0.0592
     27 CL        138.9133  144.5202  165.4442 Cl      1  UNL1       -0.0822
     28 C         139.5306  142.0000  165.5783 C.ar    1  UNL1        0.0115
     29 C         139.4955  140.6209  164.9895 C.ar    1  UNL1        0.0036
     30 C         138.8081  140.3828  163.6777 C.ar    1  UNL1        0.0309
@<TRIPOS>BOND
     1     8     9    1
     2     9    10    1
     3    10    11    1
     4    11    12   ar
     5    12    13   ar
     6    13    14   ar
     7    14    15   ar
     8    15    16   ar
     9     9     7    1
    10     7     1    1
    11     1     2   ar
    12     2     3   ar
    13     3     4   ar
    14     4     5   ar
    15     5     6   ar
    16     6    17    1
    17    17    18    1
    18    18    20    1
    19    20    21   ar
    20    21    22   ar
    21    22    23   ar
    22    23    24   ar
    23    24    25   ar
    24    25    26   ar
    25    26    27    1
    26    26    28   ar
    27    28    29   ar
    28    29    30   ar
    29    16    11   ar
    30     6     1   ar
    31    30    20   ar
    32    30    24   ar
    33    18    19    1
@<TRIPOS>MOLECULE
*****
 30 33 0 0 0
SMALL
GASTEIGER

@<TRIPOS>ATOM
      1 C         139.0664  142.4137  162.2626 C.ar    1  UNL1       -0.0085
      2 C         139.5153  143.8362  162.1049 C.ar    1  UNL1       -0.0032
      3 C         139.0687  144.8770  163.0884 C.ar    1  UNL1       -0.0003
      4 C         138.1733  144.4954  164.2296 C.ar    1  UNL1       -0.0003
      5 C         137.7243  143.0728  164.3874 C.ar    1  UNL1       -0.0029
      6 C         138.1709  142.0320  163.4039 C.ar    1  UNL1       -0.0053
      7 C         139.5130  141.3729  161.2792 C.3     1  UNL1        0.0992
      8 C         141.7162  141.3565  159.9024 C.3     1  UNL1        0.0902
      9 N         140.9681  141.0285  161.1605 N.3     1  UNL1       -0.2626
     10 C         141.6749  140.3561  162.2998 C.3     1  UNL1        0.1189
     11 C         142.7342  141.0928  163.0649 C.ar    1  UNL1        0.0752
     12 C         142.4203  142.4180  163.6938 C.ar    1  UNL1        0.0161
     13 C         143.4794  143.1548  164.4588 C.ar    1  UNL1        0.0028
     14 C         144.8524  142.5664  164.5950 C.ar    1  UNL1        0.0207
     15 C         145.1663  141.2413  163.9661 C.ar    1  UNL1        0.0985
     16 N         144.1072  140.5045  163.2010 N.ar    1  UNL1       -0.2468
     17 C         137.7220  140.6095  163.5616 C.3     1  UNL1        0.1140
     18 N         138.0269  139.8626  164.8262 N.pl3   1  UNL1       -0.3290
     19 H         137.3253  139.7375  165.5054 H       1  UNL1        0.1471
     20 C         139.4010  139.3063  165.0559 C.ar    1  UNL1        0.0478
     21 C         139.7867  137.9879  164.4533 C.ar    1  UNL1        0.0350
     22 C         141.1607  137.4317  164.6831 C.ar    1  UNL1        0.1001
     23 N         142.1488  138.1938  165.5154 N.ar    1  UNL1       -0.2437
     24 C         141.7631  139.5121  166.1179 C.ar    1  UNL1        0.0833
     25 C         142.7513  140.2742  166.9502 C.ar    1  UNL1        0.0305
     26 C         142.3655  141.5925  167.5528 C.ar    1  UNL1        0.0592
     27 CL        143.3537  142.3546  168.3851 Cl      1  UNL1       -0.0822
     28 C         140.9915  142.1488  167.3231 C.ar    1  UNL1        0.0115
     29 C         140.0033  141.3867  166.4908 C.ar    1  UNL1        0.0036
     30 C         140.3891  140.0683  165.8882 C.ar    1  UNL1        0.0309
@<TRIPOS>BOND
     1     8     9    1
     2     9    10    1
     3    10    11    1
     4    11    12   ar
     5    12    13   ar
     6    13    14   ar
     7    14    15   ar
     8    15    16   ar
     9     9     7    1
    10     7     1    1
    11     1     2   ar
    12     2     3   ar
    13     3     4   ar
    14     4     5   ar
    15     5     6   ar
    16     6    17    1
    17    17    18    1
    18    18    20    1
    19    20    21   ar
    20    21    22   ar
    21    22    23   ar
    22    23    24   ar
    23    24    25   ar
    24    25    26   ar
    25    26    27    1
    26    26    28   ar
    27    28    29   ar
    28    29    30   ar
    29    16    11   ar
    30     6     1   ar
    31    30    20   ar
    32    30    24   ar
    33    18    19    1
@<TRIPOS>MOLECULE
*****
 30 33 0 0 0
SMALL
GASTEIGER

@<TRIPOS>ATOM
      1 C         141.0613  139.3097  164.4857 C.ar    1  UNL1       -0.0085
      2 C         140.0613  138.6542  165.3914 C.ar    1  UNL1       -0.0032
      3 C         138.9979  137.7661  164.8167 C.ar    1  UNL1       -0.0003
      4 C         138.9344  137.5334  163.3362 C.ar    1  UNL1       -0.0003
      5 C         139.9344  138.1889  162.4304 C.ar    1  UNL1       -0.0029
      6 C         140.9979  139.0770  163.0051 C.ar    1  UNL1       -0.0053
      7 C         142.1248  140.1978  165.0604 C.3     1  UNL1        0.0992
      8 C         143.8385  138.4491  165.9294 C.3     1  UNL1        0.0902
      9 N         143.5374  139.7047  165.1659 N.3     1  UNL1       -0.2626
     10 C         144.6490  140.4671  164.5080 C.3     1  UNL1        0.1189
     11 C         144.4451  141.9002  164.1143 C.ar    1  UNL1        0.0752
     12 C         144.2630  142.9495  165.1706 C.ar    1  UNL1        0.0161
     13 C         144.0591  144.3825  164.7769 C.ar    1  UNL1        0.0028
     14 C         144.0373  144.7661  163.3270 C.ar    1  UNL1        0.0207
     15 C         144.2195  143.7167  162.2707 C.ar    1  UNL1        0.0985
     16 N         144.4234  142.2838  162.6644 N.ar    1  UNL1       -0.2468
     17 C         141.9979  139.7324  162.0994 C.3     1  UNL1        0.1140
     18 N         141.8416  141.1780  161.7310 N.pl3   1  UNL1       -0.3290
     19 H         142.6382  141.7354  161.5761 H       1  UNL1        0.1471
     20 C         140.4716  141.7744  161.5984 C.ar    1  UNL1        0.0478
     21 C         139.6489  141.4990  160.3749 C.ar    1  UNL1        0.0350
     22 C         138.2790  142.0954  160.2424 C.ar    1  UNL1        0.1001
     23 N         137.7317  142.9671  161.3335 N.ar    1  UNL1       -0.2437
     24 C         138.5545  143.2426  162.5571 C.ar    1  UNL1        0.0833
     25 C         138.0073  144.1143  163.6483 C.ar    1  UNL1        0.0305
     26 C         138.8300  144.3898  164.8718 C.ar    1  UNL1        0.0592
     27 CL        138.2828  145.2615  165.9630 Cl      1  UNL1       -0.0822
     28 C         140.2000  143.7934  165.0044 C.ar    1  UNL1        0.0115
     29 C         140.7472  142.9216  163.9132 C.ar    1  UNL1        0.0036
     30 C         139.9244  142.6462  162.6896 C.ar    1  UNL1        0.0309
@<TRIPOS>BOND
     1     8     9    1
     2     9    10    1
     3    10    11    1
     4    11    12   ar
     5    12    13   ar
     6    13    14   ar
     7    14    15   ar
     8    15    16   ar
     9     9     7    1
    10     7     1    1
    11     1     2   ar
    12     2     3   ar
    13     3     4   ar
    14     4     5   ar
    15     5     6   ar
    16     6    17    1
    17    17    18    1
    18    18    20    1
    19    20    21   ar
    20    21    22   ar
    21    22    23   ar
    22    23    24   ar
    23    24    25   ar
    24    25    26   ar
    25    26    27    1
    26    26    28   ar
    27    28    29   ar
    28    29    30   ar
    29    16    11   ar
    30     6     1   ar
    31    30    20   ar
    32    30    24   ar
    33    18    19    1
@<TRIPOS>MOLECULE
*****
 30 33 0 0 0
SMALL
GASTEIGER

@<TRIPOS>ATOM
      1 C         143.7412  143.1930  162.3725 C.ar    1  UNL1       -0.0085
      2 C         143.3427  144.5118  162.9658 C.ar    1  UNL1       -0.0032
      3 C         143.7748  144.8696  164.3569 C.ar    1  UNL1       -0.0003
      4 C         144.6053  143.9086  165.1548 C.ar    1  UNL1       -0.0003
      5 C         145.0038  142.5897  164.5616 C.ar    1  UNL1       -0.0029
      6 C         144.5718  142.2319  163.1704 C.ar    1  UNL1       -0.0053
      7 C         143.3092  142.8352  160.9813 C.3     1  UNL1        0.0992
      8 C         141.0878  143.4598  159.7875 C.3     1  UNL1        0.0902
      9 N         141.8645  142.5517  160.6942 N.3     1  UNL1       -0.2626
     10 C         141.1965  141.3602  161.3138 C.3     1  UNL1        0.1189
     11 C         140.1381  141.5529  162.3591 C.ar    1  UNL1        0.0752
     12 C         140.4353  142.3613  163.5872 C.ar    1  UNL1        0.0161
     13 C         139.3769  142.5541  164.6325 C.ar    1  UNL1        0.0028
     14 C         138.0214  141.9383  164.4498 C.ar    1  UNL1        0.0207
     15 C         137.7243  141.1298  163.2217 C.ar    1  UNL1        0.0985
     16 N         138.7826  140.9371  162.1764 N.ar    1  UNL1       -0.2468
     17 C         144.9703  140.9132  162.5771 C.3     1  UNL1        0.1140
     18 N         144.6704  139.6396  163.3106 N.pl3   1  UNL1       -0.3290
     19 H         145.3741  139.1988  163.8396 H       1  UNL1        0.1471
     20 C         143.2984  139.0374  163.2379 C.ar    1  UNL1        0.0478
     21 C         142.8969  138.2283  162.0405 C.ar    1  UNL1        0.0350
     22 C         141.5250  137.6263  161.9679 C.ar    1  UNL1        0.1001
     23 N         140.5546  137.8333  163.0928 N.ar    1  UNL1       -0.2437
     24 C         140.9561  138.6425  164.2903 C.ar    1  UNL1        0.0833
     25 C         139.9857  138.8496  165.4152 C.ar    1  UNL1        0.0305
     26 C         140.3872  139.6587  166.6127 C.ar    1  UNL1        0.0592
     27 CL        139.4168  139.8658  167.7376 Cl      1  UNL1       -0.0822
     28 C         141.7592  140.2608  166.6853 C.ar    1  UNL1        0.0115
     29 C         142.7296  140.0537  165.5604 C.ar    1  UNL1        0.0036
     30 C         142.3280  139.2445  164.3629 C.ar    1  UNL1        0.0309
@<TRIPOS>BOND
     1     8     9    1
     2     9    10    1
     3    10    11    1
     4    11    12   ar
     5    12    13   ar
     6    13    14   ar
     7    14    15   ar
     8    15    16   ar
     9     9     7    1
    10     7     1    1
    11     1     2   ar
    12     2     3   ar
    13     3     4   ar
    14     4     5   ar
    15     5     6   ar
    16     6    17    1
    17    17    18    1
    18    18    20    1
    19    20    21   ar
    20    21    22   ar
    21    22    23   ar
    22    23    24   ar
    23    24    25   ar
    24    25    26   ar
    25    26    27    1
    26    26    28   ar
    27    28    29   ar
    28    29    30   ar
    29    16    11   ar
    30     6     1   ar
    31    30    20   ar
    32    30    24   ar
    33    18    19    1
