@<TRIPOS>MOLECULE
*****
 30 34 0 0 0
SMALL
GASTEIGER

@<TRIPOS>ATOM
      1 C         144.1211  139.5435  164.3242 C.3     1  UNL1        0.0294
      2 C         145.2166  140.2803  163.6120 C.3     1  UNL1        0.0666
      3 S         144.8962  141.5028  162.8041 S.3     1  UNL1       -0.0756
      4 C         141.6566  143.5473  163.4289 C.ar    1  UNL1        0.2029
      5 N         142.5865  144.1641  164.4314 N.ar    1  UNL1       -0.1250
      6 N         143.9132  143.4733  164.3193 N.ar    1  UNL1       -0.1220
      7 C         143.8033  142.4295  163.2476 C.ar    1  UNL1        0.1933
      8 N         142.4087  142.4753  162.6973 N.ar    1  UNL1       -0.2860
      9 C         141.8620  141.6023  161.6068 C.3     1  UNL1        0.1341
     10 C         140.5439  145.4212  160.9998 C.3     1  UNL1        0.0556
     11 C         139.7144  144.7959  162.0820 C.ar    1  UNL1        0.1001
     12 N         138.2279  144.9221  162.2376 N.ar    1  UNL1       -0.2085
     13 C         137.8206  144.1389  163.4503 C.ar    1  UNL1        0.2849
     14 O         139.0554  143.5285  164.0442 O.2     1  UNL1       -0.4283
     15 C         140.2258  143.9346  163.1985 C.ar    1  UNL1        0.1964
     16 C         143.2046  138.6374  163.5568 C.3     1  UNL1        0.0730
     17 N         141.8073  138.3952  164.0457 N.3     1  UNL1       -0.2726
     18 C         140.8448  137.3831  163.4986 C.3     1  UNL1        0.0721
     19 C         139.5699  137.4851  164.2822 C.3     1  UNL1        0.0190
     20 C         139.7443  138.5602  165.3136 C.3     1  UNL1        0.0201
     21 C         138.3729  138.4318  165.9075 C.3     1  UNL1        0.0061
     22 C         139.3354  139.4439  166.4546 C.3     1  UNL1        0.0237
     23 C         141.1271  139.1227  165.1674 C.3     1  UNL1        0.0724
     24 C         139.6550  140.5384  167.4291 C.ar    1  UNL1       -0.0223
     25 C         140.1860  141.8514  166.9348 C.ar    1  UNL1       -0.0020
     26 C         140.5055  142.9459  167.9094 C.ar    1  UNL1        0.0293
     27 C         140.2941  142.7275  169.3783 C.ar    1  UNL1        0.1401
     28 F         140.6137  143.8221  170.3529 F       1  UNL1       -0.2042
     29 C         139.7631  141.4146  169.8726 C.ar    1  UNL1        0.0293
     30 C         139.4436  140.3201  168.8980 C.ar    1  UNL1       -0.0020
@<TRIPOS>BOND
     1    10    11    1
     2    11    12   ar
     3    12    13   ar
     4    13    14   ar
     5    14    15   ar
     6    15     4    1
     7     4     5   ar
     8     5     6   ar
     9     6     7   ar
    10     7     3    1
    11     3     2    1
    12     2     1    1
    13     1    16    1
    14    16    17    1
    15    17    18    1
    16    18    19    1
    17    20    19    1
    18    20    21    1
    19    21    22    1
    20    22    24    1
    21    24    25   ar
    22    25    26   ar
    23    26    27   ar
    24    27    28    1
    25    27    29   ar
    26    29    30   ar
    27    20    23    1
    28     7     8   ar
    29     8     9    1
    30    15    11   ar
    31     8     4   ar
    32    23    17    1
    33    22    20    1
    34    30    24   ar
@<TRIPOS>MOLECULE
*****
 30 34 0 0 0
SMALL
GASTEIGER

@<TRIPOS>ATOM
      1 C         143.6968  144.2936  164.3308 C.3     1  UNL1        0.0294
      2 C         142.7826  145.0992  163.4561 C.3     1  UNL1        0.0666
      3 S         141.2960  144.9410  163.5780 S.3     1  UNL1       -0.0756
      4 C         140.0138  141.3490  164.2983 C.ar    1  UNL1        0.2029
      5 N         139.6489  142.0484  165.5742 N.ar    1  UNL1       -0.1250
      6 N         140.0848  143.4790  165.4596 N.ar    1  UNL1       -0.1220
      7 C         140.7191  143.6639  164.1130 C.ar    1  UNL1        0.1933
      8 N         140.6752  142.3475  163.3952 N.ar    1  UNL1       -0.2860
      9 C         141.2006  142.0771  162.0165 C.3     1  UNL1        0.1341
     10 C         138.1206  139.3124  166.0064 C.3     1  UNL1        0.0556
     11 C         138.8913  138.9686  164.7663 C.ar    1  UNL1        0.1001
     12 N         138.9272  137.6284  164.0936 N.ar    1  UNL1       -0.2085
     13 C         139.8196  137.7362  162.8927 C.ar    1  UNL1        0.2849
     14 O         140.3352  139.1431  162.8233 O.2     1  UNL1       -0.4283
     15 C         139.7615  139.9047  163.9812 C.ar    1  UNL1        0.1964
     16 C         144.3697  143.0687  163.7858 C.3     1  UNL1        0.0730
     17 N         144.1298  141.7336  164.4260 N.3     1  UNL1       -0.2726
     18 C         144.6696  140.4177  163.9496 C.3     1  UNL1        0.0721
     19 C         144.1815  139.3508  164.8842 C.3     1  UNL1        0.0190
     20 C         143.3400  140.0074  165.9382 C.3     1  UNL1        0.0201
     21 C         143.0135  138.7482  166.6851 C.3     1  UNL1        0.0061
     22 C         142.4737  140.0641  167.1615 C.3     1  UNL1        0.0237
     23 C         143.3081  141.4800  165.6550 C.3     1  UNL1        0.0724
     24 C         141.6620  140.8567  168.1428 C.ar    1  UNL1       -0.0223
     25 C         140.3902  140.2866  168.6976 C.ar    1  UNL1       -0.0020
     26 C         139.5785  141.0792  169.6789 C.ar    1  UNL1        0.0293
     27 C         140.0385  142.4417  170.1053 C.ar    1  UNL1        0.1401
     28 F         139.2267  143.2343  171.0866 F       1  UNL1       -0.2042
     29 C         141.3102  143.0118  169.5505 C.ar    1  UNL1        0.0293
     30 C         142.1219  142.2192  168.5692 C.ar    1  UNL1       -0.0020
@<TRIPOS>BOND
     1    10    11    1
     2    11    12   ar
     3    12    13   ar
     4    13    14   ar
     5    14    15   ar
     6    15     4    1
     7     4     5   ar
     8     5     6   ar
     9     6     7   ar
    10     7     3    1
    11     3     2    1
    12     2     1    1
    13     1    16    1
    14    16    17    1
    15    17    18    1
    16    18    19    1
    17    20    19    1
    18    20    21    1
    19    21    22    1
    20    22    24    1
    21    24    25   ar
    22    25    26   ar
    23    26    27   ar
    24    27    28    1
    25    27    29   ar
    26    29    30   ar
    27    20    23    1
    28     7     8   ar
    29     8     9    1
    30    15    11   ar
    31     8     4   ar
    32    23    17    1
    33    22    20    1
    34    30    24   ar
@<TRIPOS>MOLECULE
*****
 30 34 0 0 0
SMALL
GASTEIGER

@<TRIPOS>ATOM
      1 C         142.9082  138.9149  162.1305 C.3     1  UNL1        0.0294
      2 C         144.1150  139.3767  162.8924 C.3     1  UNL1        0.0666
      3 S         144.1177  139.3321  164.3917 S.3     1  UNL1       -0.0756
      4 C         142.7955  141.9977  166.8841 C.ar    1  UNL1        0.2029
      5 N         143.5243  142.8603  165.8967 N.ar    1  UNL1       -0.1250
      6 N         144.1083  141.9667  164.8429 N.ar    1  UNL1       -0.1220
      7 C         143.7404  140.5519  165.1790 C.ar    1  UNL1        0.1933
      8 N         142.9291  140.5710  166.4405 N.ar    1  UNL1       -0.2860
      9 C         142.3526  139.3737  167.1362 C.3     1  UNL1        0.1341
     10 C         144.0713  142.3900  169.8621 C.3     1  UNL1        0.0556
     11 C         142.6484  142.6579  169.4702 C.ar    1  UNL1        0.1001
     12 N         141.5621  143.1531  170.3782 N.ar    1  UNL1       -0.2085
     13 C         140.3043  143.2789  169.5707 C.ar    1  UNL1        0.2849
     14 O         140.6132  142.8613  168.1635 O.2     1  UNL1       -0.4283
     15 C         142.0620  142.4776  168.1014 C.ar    1  UNL1        0.1964
     16 C         142.0625  137.7994  162.6694 C.3     1  UNL1        0.0730
     17 N         140.9595  138.0967  163.6415 N.3     1  UNL1       -0.2726
     18 C         140.3414  137.1213  164.5989 C.3     1  UNL1        0.0721
     19 C         139.2809  137.8435  165.3760 C.3     1  UNL1        0.0190
     20 C         139.2437  139.2651  164.8990 C.3     1  UNL1        0.0201
     21 C         138.1429  139.7094  165.8159 C.3     1  UNL1        0.0061
     22 C         138.7610  140.6848  164.8586 C.3     1  UNL1        0.0237
     23 C         140.2811  139.4216  163.8270 C.3     1  UNL1        0.0724
     24 C         138.8393  142.0675  164.2825 C.ar    1  UNL1       -0.0223
     25 C         137.7912  142.5388  163.3184 C.ar    1  UNL1       -0.0020
     26 C         137.8695  143.9215  162.7424 C.ar    1  UNL1        0.0293
     27 C         138.9958  144.8330  163.1304 C.ar    1  UNL1        0.1401
     28 F         139.0740  146.2158  162.5544 F       1  UNL1       -0.2042
     29 C         140.0439  144.3617  164.0945 C.ar    1  UNL1        0.0293
     30 C         139.9656  142.9790  164.6706 C.ar    1  UNL1       -0.0020
@<TRIPOS>BOND
     1    10    11    1
     2    11    12   ar
     3    12    13   ar
     4    13    14   ar
     5    14    15   ar
     6    15     4    1
     7     4     5   ar
     8     5     6   ar
     9     6     7   ar
    10     7     3    1
    11     3     2    1
    12     2     1    1
    13     1    16    1
    14    16    17    1
    15    17    18    1
    16    18    19    1
    17    20    19    1
    18    20    21    1
    19    21    22    1
    20    22    24    1
    21    24    25   ar
    22    25    26   ar
    23    26    27   ar
    24    27    28    1
    25    27    29   ar
    26    29    30   ar
    27    20    23    1
    28     7     8   ar
    29     8     9    1
    30    15    11   ar
    31     8     4   ar
    32    23    17    1
    33    22    20    1
    34    30    24   ar
@<TRIPOS>MOLECULE
*****
 30 34 0 0 0
SMALL
GASTEIGER

@<TRIPOS>ATOM
      1 C         138.6809  144.7517  163.4561 C.3     1  UNL1        0.0294
      2 C         139.2471  145.3707  162.2126 C.3     1  UNL1        0.0666
      3 S         140.7330  145.4445  162.0212 S.3     1  UNL1       -0.0756
      4 C         142.7982  142.7155  163.8525 C.ar    1  UNL1        0.2029
      5 N         143.2818  143.9566  164.5422 N.ar    1  UNL1       -0.1250
      6 N         142.5671  145.1300  163.9402 N.ar    1  UNL1       -0.1220
      7 C         141.6417  144.6140  162.8784 C.ar    1  UNL1        0.1933
      8 N         141.7845  143.1218  162.8241 N.ar    1  UNL1       -0.2860
      9 C         141.0437  142.1981  161.9032 C.3     1  UNL1        0.1341
     10 C         145.8607  141.6063  163.6517 C.3     1  UNL1        0.0556
     11 C         144.6568  140.8043  164.0482 C.ar    1  UNL1        0.1001
     12 N         144.6490  139.3517  164.4220 N.ar    1  UNL1       -0.2085
     13 C         143.2366  138.9637  164.7453 C.ar    1  UNL1        0.2849
     14 O         142.3714  140.1766  164.5713 O.2     1  UNL1       -0.4283
     15 C         143.2491  141.3141  164.1405 C.ar    1  UNL1        0.1964
     16 C         137.5847  143.7329  163.3547 C.3     1  UNL1        0.0730
     17 N         137.8713  142.2907  163.6511 N.3     1  UNL1       -0.2726
     18 C         137.5995  141.1320  162.7381 C.3     1  UNL1        0.0721
     19 C         138.0403  139.8792  163.4353 C.3     1  UNL1        0.0190
     20 C         138.5845  140.2636  164.7793 C.3     1  UNL1        0.0201
     21 C         138.9264  138.8695  165.2146 C.3     1  UNL1        0.0061
     22 C         139.1982  140.0282  166.1276 C.3     1  UNL1        0.0237
     23 C         138.4800  141.7540  164.9126 C.3     1  UNL1        0.0724
     24 C         139.7094  140.5612  167.4332 C.ar    1  UNL1       -0.0223
     25 C         139.1796  140.0143  168.7256 C.ar    1  UNL1       -0.0020
     26 C         139.6908  140.5474  170.0311 C.ar    1  UNL1        0.0293
     27 C         140.7318  141.6273  170.0443 C.ar    1  UNL1        0.1401
     28 F         141.2429  142.1603  171.3499 F       1  UNL1       -0.2042
     29 C         141.2615  142.1741  168.7519 C.ar    1  UNL1        0.0293
     30 C         140.7503  141.6411  167.4463 C.ar    1  UNL1       -0.0020
@<TRIPOS>BOND
     1    10    11    1
     2    11    12   ar
     3    12    13   ar
     4    13    14   ar
     5    14    15   ar
     6    15     4    1
     7     4     5   ar
     8     5     6   ar
     9     6     7   ar
    10     7     3    1
    11     3     2    1
    12     2     1    1
    13     1    16    1
    14    16    17    1
    15    17    18    1
    16    18    19    1
    17    20    19    1
    18    20    21    1
    19    21    22    1
    20    22    24    1
    21    24    25   ar
    22    25    26   ar
    23    26    27   ar
    24    27    28    1
    25    27    29   ar
    26    29    30   ar
    27    20    23    1
    28     7     8   ar
    29     8     9    1
    30    15    11   ar
    31     8     4   ar
    32    23    17    1
    33    22    20    1
    34    30    24   ar
@<TRIPOS>MOLECULE
*****
 30 34 0 0 0
SMALL
GASTEIGER

@<TRIPOS>ATOM
      1 C         138.9653  137.7004  165.0808 C.3     1  UNL1        0.0294
      2 C         138.7948  137.6792  163.5906 C.3     1  UNL1        0.0666
      3 S         139.5536  138.6496  162.7350 S.3     1  UNL1       -0.0756
      4 C         138.9101  142.4242  162.0989 C.ar    1  UNL1        0.2029
      5 N         137.5118  141.9228  162.3078 N.ar    1  UNL1       -0.1250
      6 N         137.5827  140.4479  162.5715 N.ar    1  UNL1       -0.1220
      7 C         139.0248  140.0376  162.5256 C.ar    1  UNL1        0.1933
      8 N         139.8452  141.2590  162.2335 N.ar    1  UNL1       -0.2860
      9 C         141.3384  141.3068  162.0995 C.3     1  UNL1        0.1341
     10 C         139.1478  144.8379  164.2822 C.3     1  UNL1        0.0556
     11 C         139.4133  144.9512  162.8103 C.ar    1  UNL1        0.1001
     12 N         139.8347  146.1938  162.0834 N.ar    1  UNL1       -0.2085
     13 C         139.9859  145.8523  160.6306 C.ar    1  UNL1        0.2849
     14 O         139.6579  144.3986  160.4596 O.2     1  UNL1       -0.4283
     15 C         139.3040  143.8417  161.8067 C.ar    1  UNL1        0.1964
     16 C         138.4667  138.8703  165.8762 C.3     1  UNL1        0.0730
     17 N         139.4089  139.6327  166.7599 N.3     1  UNL1       -0.2726
     18 C         139.2386  139.8728  168.2308 C.3     1  UNL1        0.0721
     19 C         140.4113  140.6773  168.7078 C.3     1  UNL1        0.0190
     20 C         141.3063  140.9344  167.5318 C.3     1  UNL1        0.0201
     21 C         142.3369  141.7195  168.2877 C.3     1  UNL1        0.0061
     22 C         142.5072  141.4793  166.8169 C.3     1  UNL1        0.0237
     23 C         140.6868  140.2888  166.3279 C.3     1  UNL1        0.0724
     24 C         143.2988  141.6553  165.5550 C.ar    1  UNL1       -0.0223
     25 C         143.4408  143.0171  164.9425 C.ar    1  UNL1       -0.0020
     26 C         144.2323  143.1931  163.6806 C.ar    1  UNL1        0.0293
     27 C         144.8819  142.0071  163.0312 C.ar    1  UNL1        0.1401
     28 F         145.6735  142.1831  161.7693 F       1  UNL1       -0.2042
     29 C         144.7399  140.6453  163.6437 C.ar    1  UNL1        0.0293
     30 C         143.9483  140.4693  164.9057 C.ar    1  UNL1       -0.0020
@<TRIPOS>BOND
     1    10    11    1
     2    11    12   ar
     3    12    13   ar
     4    13    14   ar
     5    14    15   ar
     6    15     4    1
     7     4     5   ar
     8     5     6   ar
     9     6     7   ar
    10     7     3    1
    11     3     2    1
    12     2     1    1
    13     1    16    1
    14    16    17    1
    15    17    18    1
    16    18    19    1
    17    20    19    1
    18    20    21    1
    19    21    22    1
    20    22    24    1
    21    24    25   ar
    22    25    26   ar
    23    26    27   ar
    24    27    28    1
    25    27    29   ar
    26    29    30   ar
    27    20    23    1
    28     7     8   ar
    29     8     9    1
    30    15    11   ar
    31     8     4   ar
    32    23    17    1
    33    22    20    1
    34    30    24   ar
@<TRIPOS>MOLECULE
*****
 30 34 0 0 0
SMALL
GASTEIGER

@<TRIPOS>ATOM
      1 C         140.9809  144.1931  161.6390 C.3     1  UNL1        0.0294
      2 C         140.1105  145.2228  162.2965 C.3     1  UNL1        0.0666
      3 S         138.7924  144.8224  162.8897 S.3     1  UNL1       -0.0756
      4 C         138.1790  141.0734  163.6865 C.ar    1  UNL1        0.2029
      5 N         137.4396  141.2189  162.3894 N.ar    1  UNL1       -0.1250
      6 N         137.5794  142.6409  161.9331 N.ar    1  UNL1       -0.1220
      7 C         138.4052  143.3744  162.9481 C.ar    1  UNL1        0.1933
      8 N         138.7757  142.4056  164.0317 N.ar    1  UNL1       -0.2860
      9 C         139.5985  142.7148  165.2472 C.3     1  UNL1        0.1341
     10 C         139.5597  138.2846  162.7038 C.3     1  UNL1        0.0556
     11 C         138.9349  138.5346  164.0443 C.ar    1  UNL1        0.1001
     12 N         138.8350  137.5467  165.1686 N.ar    1  UNL1       -0.2085
     13 C         138.1386  138.2179  166.3151 C.ar    1  UNL1        0.2849
     14 O         137.8081  139.6208  165.8995 O.2     1  UNL1       -0.4283
     15 C         138.3002  139.8165  164.4960 C.ar    1  UNL1        0.1964
     16 C         142.4740  144.3189  161.7072 C.3     1  UNL1        0.0730
     17 N         143.3007  143.1747  162.2146 N.3     1  UNL1       -0.2726
     18 C         144.4361  142.5169  161.4879 C.3     1  UNL1        0.0721
     19 C         144.9742  141.4232  162.3621 C.3     1  UNL1        0.0190
     20 C         144.1714  141.4050  163.6291 C.3     1  UNL1        0.0201
     21 C         144.9096  140.2653  164.2662 C.3     1  UNL1        0.0061
     22 C         143.7742  140.9231  164.9929 C.3     1  UNL1        0.0237
     23 C         143.1371  142.4876  163.5379 C.3     1  UNL1        0.0724
     24 C         142.8894  141.0247  166.1998 C.ar    1  UNL1       -0.0223
     25 C         141.8047  140.0127  166.4219 C.ar    1  UNL1       -0.0020
     26 C         140.9198  140.1143  167.6288 C.ar    1  UNL1        0.0293
     27 C         141.1197  141.2278  168.6137 C.ar    1  UNL1        0.1401
     28 F         140.2348  141.3294  169.8206 F       1  UNL1       -0.2042
     29 C         142.2044  142.2398  168.3916 C.ar    1  UNL1        0.0293
     30 C         143.0892  142.1383  167.1847 C.ar    1  UNL1       -0.0020
@<TRIPOS>BOND
     1    10    11    1
     2    11    12   ar
     3    12    13   ar
     4    13    14   ar
     5    14    15   ar
     6    15     4    1
     7     4     5   ar
     8     5     6   ar
     9     6     7   ar
    10     7     3    1
    11     3     2    1
    12     2     1    1
    13     1    16    1
    14    16    17    1
    15    17    18    1
    16    18    19    1
    17    20    19    1
    18    20    21    1
    19    21    22    1
    20    22    24    1
    21    24    25   ar
    22    25    26   ar
    23    26    27   ar
    24    27    28    1
    25    27    29   ar
    26    29    30   ar
    27    20    23    1
    28     7     8   ar
    29     8     9    1
    30    15    11   ar
    31     8     4   ar
    32    23    17    1
    33    22    20    1
    34    30    24   ar
@<TRIPOS>MOLECULE
*****
 30 34 0 0 0
SMALL
GASTEIGER

@<TRIPOS>ATOM
      1 C         144.5410  139.8399  164.3865 C.3     1  UNL1        0.0294
      2 C         145.3067  140.8820  163.6263 C.3     1  UNL1        0.0666
      3 S         144.6617  141.5963  162.4759 S.3     1  UNL1       -0.0756
      4 C         140.9777  142.6342  163.1217 C.ar    1  UNL1        0.2029
      5 N         140.8357  141.8283  161.8646 N.ar    1  UNL1       -0.1250
      6 N         142.1984  141.3415  161.4696 N.ar    1  UNL1       -0.1220
      7 C         143.1827  141.8464  162.4827 C.ar    1  UNL1        0.1933
      8 N         142.4283  142.6454  163.5037 N.ar    1  UNL1       -0.2860
      9 C         143.0204  143.3345  164.6973 C.3     1  UNL1        0.1341
     10 C         137.9065  141.5594  163.3707 C.3     1  UNL1        0.0556
     11 C         138.4530  142.8162  163.9806 C.ar    1  UNL1        0.1001
     12 N         137.6838  143.7996  164.8120 N.ar    1  UNL1       -0.2085
     13 C         138.6200  144.9014  165.2114 C.ar    1  UNL1        0.2849
     14 O         139.9679  144.5989  164.6268 O.2     1  UNL1       -0.4283
     15 C         139.8647  143.3102  163.8661 C.ar    1  UNL1        0.1964
     16 C         143.8161  138.7541  163.6479 C.3     1  UNL1        0.0730
     17 N         142.3604  138.5090  163.9138 N.3     1  UNL1       -0.2726
     18 C         141.4646  137.5906  163.1366 C.3     1  UNL1        0.0721
     19 C         140.0954  137.6534  163.7460 C.3     1  UNL1        0.0190
     20 C         140.1450  138.6106  164.8998 C.3     1  UNL1        0.0201
     21 C         138.7024  138.4669  165.2849 C.3     1  UNL1        0.0061
     22 C         139.5982  139.3853  166.0621 C.3     1  UNL1        0.0237
     23 C         141.5448  139.1394  165.0035 C.3     1  UNL1        0.0724
     24 C         139.7997  140.3629  167.1818 C.ar    1  UNL1       -0.0223
     25 C         140.3855  141.7149  166.9007 C.ar    1  UNL1       -0.0020
     26 C         140.5870  142.6925  168.0204 C.ar    1  UNL1        0.0293
     27 C         140.2028  142.3180  169.4212 C.ar    1  UNL1        0.1401
     28 F         140.4043  143.2955  170.5409 F       1  UNL1       -0.2042
     29 C         139.6170  140.9660  169.7022 C.ar    1  UNL1        0.0293
     30 C         139.4155  139.9884  168.5825 C.ar    1  UNL1       -0.0020
@<TRIPOS>BOND
     1    10    11    1
     2    11    12   ar
     3    12    13   ar
     4    13    14   ar
     5    14    15   ar
     6    15     4    1
     7     4     5   ar
     8     5     6   ar
     9     6     7   ar
    10     7     3    1
    11     3     2    1
    12     2     1    1
    13     1    16    1
    14    16    17    1
    15    17    18    1
    16    18    19    1
    17    20    19    1
    18    20    21    1
    19    21    22    1
    20    22    24    1
    21    24    25   ar
    22    25    26   ar
    23    26    27   ar
    24    27    28    1
    25    27    29   ar
    26    29    30   ar
    27    20    23    1
    28     7     8   ar
    29     8     9    1
    30    15    11   ar
    31     8     4   ar
    32    23    17    1
    33    22    20    1
    34    30    24   ar
@<TRIPOS>MOLECULE
*****
 30 34 0 0 0
SMALL
GASTEIGER

@<TRIPOS>ATOM
      1 C         140.0810  145.2494  163.5536 C.3     1  UNL1        0.0294
      2 C         139.6759  145.5571  162.1424 C.3     1  UNL1        0.0666
      3 S         140.2756  144.7850  161.0048 S.3     1  UNL1       -0.0756
      4 C         140.2277  140.9106  161.2341 C.ar    1  UNL1        0.2029
      5 N         139.1440  141.1548  160.2262 N.ar    1  UNL1       -0.1250
      6 N         139.0300  142.6358  160.0176 N.ar    1  UNL1       -0.1220
      7 C         140.0433  143.3070  160.8967 C.ar    1  UNL1        0.1933
      8 N         140.7835  142.2408  161.6485 N.ar    1  UNL1       -0.2860
      9 C         141.8860  142.4654  162.6406 C.3     1  UNL1        0.1341
     10 C         138.3397  138.2785  161.6305 C.3     1  UNL1        0.0556
     11 C         139.8089  138.3615  161.9212 C.ar    1  UNL1        0.1001
     12 N         140.6683  137.2494  162.4452 N.ar    1  UNL1       -0.2085
     13 C         142.0672  137.7719  162.5869 C.ar    1  UNL1        0.2849
     14 O         142.0724  139.2070  162.1504 O.2     1  UNL1       -0.4283
     15 C         140.6767  139.5714  161.7391 C.ar    1  UNL1        0.1964
     16 C         139.0688  144.7206  164.5262 C.3     1  UNL1        0.0730
     17 N         138.6882  143.2700  164.4979 N.3     1  UNL1       -0.2726
     18 C         137.7110  142.6331  163.5548 C.3     1  UNL1        0.0721
     19 C         137.6368  141.1710  163.8819 C.3     1  UNL1        0.0190
     20 C         138.5681  140.9044  165.0271 C.3     1  UNL1        0.0201
     21 C         138.2869  139.4338  165.1188 C.3     1  UNL1        0.0061
     22 C         139.2641  140.0707  166.0619 C.3     1  UNL1        0.0237
     23 C         139.2179  142.2016  165.4079 C.3     1  UNL1        0.0724
     24 C         140.2301  139.9572  167.2038 C.ar    1  UNL1       -0.0223
     25 C         141.6851  139.7124  166.9337 C.ar    1  UNL1       -0.0020
     26 C         142.6511  139.5988  168.0756 C.ar    1  UNL1        0.0293
     27 C         142.1620  139.7301  169.4876 C.ar    1  UNL1        0.1401
     28 F         143.1280  139.6165  170.6294 F       1  UNL1       -0.2042
     29 C         140.7070  139.9748  169.7576 C.ar    1  UNL1        0.0293
     30 C         139.7410  140.0884  168.6157 C.ar    1  UNL1       -0.0020
@<TRIPOS>BOND
     1    10    11    1
     2    11    12   ar
     3    12    13   ar
     4    13    14   ar
     5    14    15   ar
     6    15     4    1
     7     4     5   ar
     8     5     6   ar
     9     6     7   ar
    10     7     3    1
    11     3     2    1
    12     2     1    1
    13     1    16    1
    14    16    17    1
    15    17    18    1
    16    18    19    1
    17    20    19    1
    18    20    21    1
    19    21    22    1
    20    22    24    1
    21    24    25   ar
    22    25    26   ar
    23    26    27   ar
    24    27    28    1
    25    27    29   ar
    26    29    30   ar
    27    20    23    1
    28     7     8   ar
    29     8     9    1
    30    15    11   ar
    31     8     4   ar
    32    23    17    1
    33    22    20    1
    34    30    24   ar
@<TRIPOS>MOLECULE
*****
 30 34 0 0 0
SMALL
GASTEIGER

@<TRIPOS>ATOM
      1 C         144.6449  142.6825  162.4968 C.3     1  UNL1        0.0294
      2 C         144.7216  142.7452  161.0000 C.3     1  UNL1        0.0666
      3 S         144.0402  141.6984  160.1696 S.3     1  UNL1       -0.0756
      4 C         142.0651  138.9161  162.0201 C.ar    1  UNL1        0.2029
      5 N         143.3042  138.1730  161.6171 N.ar    1  UNL1       -0.1250
      6 N         144.1949  139.1247  160.8748 N.ar    1  UNL1       -0.1220
      7 C         143.5063  140.4561  160.8191 C.ar    1  UNL1        0.1933
      8 N         142.1900  140.3273  161.5269 N.ar    1  UNL1       -0.2860
      9 C         141.1766  141.4180  161.7094 C.3     1  UNL1        0.1341
     10 C         142.0681  138.0773  165.1738 C.3     1  UNL1        0.0556
     11 C         140.9063  137.9624  164.2320 C.ar    1  UNL1        0.1001
     12 N         139.5419  137.4418  164.5744 N.ar    1  UNL1       -0.2085
     13 C         138.6972  137.5056  163.3365 C.ar    1  UNL1        0.2849
     14 O         139.5397  138.0657  162.2289 O.2     1  UNL1       -0.4283
     15 C         140.9049  138.3480  162.7824 C.ar    1  UNL1        0.1964
     16 C         144.2498  143.8996  163.2793 C.3     1  UNL1        0.0730
     17 N         142.8003  144.1889  163.5351 N.3     1  UNL1       -0.2726
     18 C         141.9405  145.1407  162.7574 C.3     1  UNL1        0.0721
     19 C         140.5651  145.1171  163.3553 C.3     1  UNL1        0.0190
     20 C         140.5747  144.1509  164.5025 C.3     1  UNL1        0.0201
     21 C         139.1343  144.3375  164.8769 C.3     1  UNL1        0.0061
     22 C         139.9941  143.3858  165.6547 C.3     1  UNL1        0.0237
     23 C         141.9562  143.5772  164.6137 C.3     1  UNL1        0.0724
     24 C         140.1552  142.3946  166.7689 C.ar    1  UNL1       -0.0223
     25 C         139.8317  140.9481  166.5386 C.ar    1  UNL1       -0.0020
     26 C         139.9928  139.9569  167.6529 C.ar    1  UNL1        0.0293
     27 C         140.4775  140.4122  168.9974 C.ar    1  UNL1        0.1401
     28 F         140.6387  139.4210  170.1116 F       1  UNL1       -0.2042
     29 C         140.8011  141.8587  169.2277 C.ar    1  UNL1        0.0293
     30 C         140.6399  142.8499  168.1135 C.ar    1  UNL1       -0.0020
@<TRIPOS>BOND
     1    10    11    1
     2    11    12   ar
     3    12    13   ar
     4    13    14   ar
     5    14    15   ar
     6    15     4    1
     7     4     5   ar
     8     5     6   ar
     9     6     7   ar
    10     7     3    1
    11     3     2    1
    12     2     1    1
    13     1    16    1
    14    16    17    1
    15    17    18    1
    16    18    19    1
    17    20    19    1
    18    20    21    1
    19    21    22    1
    20    22    24    1
    21    24    25   ar
    22    25    26   ar
    23    26    27   ar
    24    27    28    1
    25    27    29   ar
    26    29    30   ar
    27    20    23    1
    28     7     8   ar
    29     8     9    1
    30    15    11   ar
    31     8     4   ar
    32    23    17    1
    33    22    20    1
    34    30    24   ar
