@<TRIPOS>MOLECULE
*****
 33 36 0 0 0
SMALL
GASTEIGER

@<TRIPOS>ATOM
      1 N         141.3944  139.1674  163.4484 N.am    1  UNL1       -0.2555
      2 C         142.2114  140.1019  164.2905 C.3     1  UNL1        0.1197
      3 C         141.7895  140.4069  165.6974 C.3     1  UNL1        0.1160
      4 N         140.5506  139.7773  166.2620 N.am    1  UNL1       -0.2659
      5 C         140.1287  140.0823  167.6687 C.2     1  UNL1        0.2516
      6 O         138.8898  139.4527  168.2333 O.2     1  UNL1       -0.2698
      7 C         139.7336  138.8428  165.4198 C.3     1  UNL1        0.1799
      8 C         140.1555  138.5379  164.0130 C.2     1  UNL1        0.2497
      9 O         139.3385  137.6034  163.1708 O.2     1  UNL1       -0.2727
     10 C         140.9457  141.0167  168.5108 C.ar    1  UNL1        0.0811
     11 C         140.4448  142.4016  168.7960 C.ar    1  UNL1        0.0091
     12 C         141.2618  143.3361  169.6382 C.ar    1  UNL1        0.0299
     13 C         142.5798  142.8857  170.1952 C.ar    1  UNL1        0.1424
     14 F         143.3967  143.8202  171.0373 F       1  UNL1       -0.2041
     15 C         143.0807  141.5009  169.9100 C.ar    1  UNL1        0.0594
     16 C         142.2637  140.5664  169.0679 C.ar    1  UNL1        0.1467
     17 F         142.7646  139.1816  168.7827 F       1  UNL1       -0.2039
     18 C         142.6600  138.2526  159.2281 C.ar    1  UNL1        0.1386
     19 C         141.6199  139.3016  159.4885 C.ar    1  UNL1        0.0382
     20 C         141.1981  139.6065  160.8952 C.ar    1  UNL1        0.0180
     21 C         141.8163  138.8625  162.0416 C.ar    1  UNL1        0.0541
     22 C         142.8564  137.8135  161.7812 C.ar    1  UNL1        0.0180
     23 C         143.2782  137.5086  160.3744 C.ar    1  UNL1        0.0382
     24 O         143.0819  137.9477  157.8212 O.3     1  UNL1       -0.4754
     25 C         142.5131  136.7562  157.1093 C.3     1  UNL1        0.2068
     26 C         143.4143  135.6334  156.6882 C.3     1  UNL1        0.0646
     27 C         143.3635  134.3198  157.4106 C.3     1  UNL1        0.0759
     28 C         141.3707  132.8159  155.3092 C.3     1  UNL1        0.0173
     29 C         142.7415  132.3556  155.7078 C.3     1  UNL1        0.0576
     30 C         143.4369  131.1231  155.2105 C.3     1  UNL1        0.0174
     31 C         144.7828  131.0526  155.8691 C.3     1  UNL1        0.0187
     32 C         144.9191  132.2415  156.7735 C.3     1  UNL1        0.0721
     33 N         143.6575  133.0468  156.6738 N.3     1  UNL1       -0.2738
@<TRIPOS>BOND
     1    29    28    1
     2    29    30    1
     3    30    31    1
     4    31    32    1
     5    32    33    1
     6    33    27    1
     7    27    26    1
     8    26    25    1
     9    25    24    1
    10    24    18    1
    11    18    19   ar
    12    19    20   ar
    13    20    21   ar
    14    21     1    1
    15     1     2    1
    16     2     3    1
    17     3     4    1
    18     4     5   am
    19     5     6    2
    20     5    10    1
    21    10    11   ar
    22    11    12   ar
    23    12    13   ar
    24    13    14    1
    25    13    15   ar
    26    15    16   ar
    27    16    17    1
    28     4     7    1
    29     7     8    1
    30     8     9    2
    31    21    22   ar
    32    22    23   ar
    33    33    29    1
    34    23    18   ar
    35     8     1   am
    36    16    10   ar
@<TRIPOS>MOLECULE
*****
 33 36 0 0 0
SMALL
GASTEIGER

@<TRIPOS>ATOM
      1 N         139.2432  139.3021  162.0746 N.am    1  UNL1       -0.2555
      2 C         140.3120  138.4861  161.4101 C.3     1  UNL1        0.1197
      3 C         140.4032  138.4456  159.9133 C.3     1  UNL1        0.1160
      4 N         139.4254  139.2212  159.0812 N.am    1  UNL1       -0.2659
      5 C         139.5165  139.1808  157.5846 C.2     1  UNL1        0.2516
      6 O         138.5387  139.9564  156.7524 O.2     1  UNL1       -0.2698
      7 C         138.3565  140.0373  159.7458 C.3     1  UNL1        0.1799
      8 C         138.2655  140.0777  161.2425 C.2     1  UNL1        0.2497
      9 O         137.1966  140.8938  161.9071 O.2     1  UNL1       -0.2727
     10 C         140.5853  138.3648  156.9200 C.ar    1  UNL1        0.0811
     11 C         142.0152  138.8146  156.9745 C.ar    1  UNL1        0.0091
     12 C         143.0841  137.9985  156.3099 C.ar    1  UNL1        0.0299
     13 C         142.7230  136.7326  155.5909 C.ar    1  UNL1        0.1424
     14 F         143.7918  135.9166  154.9264 F       1  UNL1       -0.2041
     15 C         141.2931  136.2827  155.5364 C.ar    1  UNL1        0.0594
     16 C         140.2242  137.0988  156.2010 C.ar    1  UNL1        0.1467
     17 F         138.7943  136.6489  156.1465 F       1  UNL1       -0.2039
     18 C         138.9699  139.4236  166.5646 C.ar    1  UNL1        0.1386
     19 C         139.3332  140.6628  165.8016 C.ar    1  UNL1        0.0382
     20 C         139.4243  140.6223  164.3050 C.ar    1  UNL1        0.0180
     21 C         139.1521  139.3426  163.5713 C.ar    1  UNL1        0.0541
     22 C         138.7888  138.1034  164.3344 C.ar    1  UNL1        0.0180
     23 C         138.6977  138.1439  165.8310 C.ar    1  UNL1        0.0382
     24 O         138.8788  139.4641  168.0614 O.3     1  UNL1       -0.4754
     25 C         139.7831  140.3698  168.8436 C.3     1  UNL1        0.2068
     26 C         140.9226  139.7941  169.6310 C.3     1  UNL1        0.0646
     27 C         142.2784  139.6642  169.0027 C.3     1  UNL1        0.0759
     28 C         142.5698  138.6230  165.9237 C.3     1  UNL1        0.0173
     29 C         142.7734  140.0302  166.4016 C.3     1  UNL1        0.0576
     30 C         143.1466  141.2059  165.5481 C.3     1  UNL1        0.0174
     31 C         143.2434  142.4111  166.4358 C.3     1  UNL1        0.0187
     32 C         142.9299  141.9803  167.8380 C.3     1  UNL1        0.0721
     33 N         142.6395  140.5088  167.8168 N.3     1  UNL1       -0.2738
@<TRIPOS>BOND
     1    29    28    1
     2    29    30    1
     3    30    31    1
     4    31    32    1
     5    32    33    1
     6    33    27    1
     7    27    26    1
     8    26    25    1
     9    25    24    1
    10    24    18    1
    11    18    19   ar
    12    19    20   ar
    13    20    21   ar
    14    21     1    1
    15     1     2    1
    16     2     3    1
    17     3     4    1
    18     4     5   am
    19     5     6    2
    20     5    10    1
    21    10    11   ar
    22    11    12   ar
    23    12    13   ar
    24    13    14    1
    25    13    15   ar
    26    15    16   ar
    27    16    17    1
    28     4     7    1
    29     7     8    1
    30     8     9    2
    31    21    22   ar
    32    22    23   ar
    33    33    29    1
    34    23    18   ar
    35     8     1   am
    36    16    10   ar
@<TRIPOS>MOLECULE
*****
 33 36 0 0 0
SMALL
GASTEIGER

@<TRIPOS>ATOM
      1 N         140.7926  139.4068  163.6678 N.am    1  UNL1       -0.2555
      2 C         141.6814  140.3364  164.4395 C.3     1  UNL1        0.1197
      3 C         141.4134  140.5968  165.8923 C.3     1  UNL1        0.1160
      4 N         140.2566  139.9273  166.5732 N.am    1  UNL1       -0.2659
      5 C         139.9885  140.1876  168.0259 C.2     1  UNL1        0.2516
      6 O         138.8317  139.5182  168.7068 O.2     1  UNL1       -0.2698
      7 C         139.3677  138.9976  165.8013 C.3     1  UNL1        0.1799
      8 C         139.6358  138.7373  164.3487 C.2     1  UNL1        0.2497
      9 O         138.7470  137.8076  163.5768 O.2     1  UNL1       -0.2727
     10 C         140.8773  141.1173  168.7977 C.ar    1  UNL1        0.0811
     11 C         140.4045  142.5007  169.1333 C.ar    1  UNL1        0.0091
     12 C         141.2934  143.4304  169.9052 C.ar    1  UNL1        0.0299
     13 C         142.6549  142.9767  170.3413 C.ar    1  UNL1        0.1424
     14 F         143.5437  143.9063  171.1131 F       1  UNL1       -0.2041
     15 C         143.1277  141.5932  170.0057 C.ar    1  UNL1        0.0594
     16 C         142.2389  140.6636  169.2339 C.ar    1  UNL1        0.1467
     17 F         142.7117  139.2801  168.8983 F       1  UNL1       -0.2039
     18 C         141.5966  138.6259  159.3096 C.ar    1  UNL1        0.1386
     19 C         140.5961  139.6682  159.7126 C.ar    1  UNL1        0.0382
     20 C         140.3281  139.9285  161.1653 C.ar    1  UNL1        0.0180
     21 C         141.0607  139.1464  162.2150 C.ar    1  UNL1        0.0541
     22 C         142.0612  138.1041  161.8119 C.ar    1  UNL1        0.0180
     23 C         142.3292  137.8439  160.3592 C.ar    1  UNL1        0.0382
     24 O         141.8646  138.3656  157.8568 O.3     1  UNL1       -0.4754
     25 C         143.0614  138.9798  157.1931 C.3     1  UNL1        0.2068
     26 C         143.3250  140.4498  157.3338 C.3     1  UNL1        0.0646
     27 C         144.1116  140.9621  158.5037 C.3     1  UNL1        0.0759
     28 C         144.4974  140.7141  161.7346 C.3     1  UNL1        0.0173
     29 C         143.6213  141.7033  161.0246 C.3     1  UNL1        0.0576
     30 C         142.7688  142.7521  161.6751 C.3     1  UNL1        0.0174
     31 C         142.0645  143.5143  160.5920 C.3     1  UNL1        0.0187
     32 C         142.4819  142.9366  159.2722 C.3     1  UNL1        0.0721
     33 N         143.4440  141.8173  159.5395 N.3     1  UNL1       -0.2738
@<TRIPOS>BOND
     1    29    28    1
     2    29    30    1
     3    30    31    1
     4    31    32    1
     5    32    33    1
     6    33    27    1
     7    27    26    1
     8    26    25    1
     9    25    24    1
    10    24    18    1
    11    18    19   ar
    12    19    20   ar
    13    20    21   ar
    14    21     1    1
    15     1     2    1
    16     2     3    1
    17     3     4    1
    18     4     5   am
    19     5     6    2
    20     5    10    1
    21    10    11   ar
    22    11    12   ar
    23    12    13   ar
    24    13    14    1
    25    13    15   ar
    26    15    16   ar
    27    16    17    1
    28     4     7    1
    29     7     8    1
    30     8     9    2
    31    21    22   ar
    32    22    23   ar
    33    33    29    1
    34    23    18   ar
    35     8     1   am
    36    16    10   ar
@<TRIPOS>MOLECULE
*****
 33 36 0 0 0
SMALL
GASTEIGER

@<TRIPOS>ATOM
      1 N         140.1358  140.7981  163.2423 N.am    1  UNL1       -0.2555
      2 C         141.0447  141.6361  164.0917 C.3     1  UNL1        0.1197
      3 C         140.9855  141.5276  165.5866 C.3     1  UNL1        0.1160
      4 N         140.0174  140.5810  166.2321 N.am    1  UNL1       -0.2659
      5 C         139.9582  140.4724  167.7270 C.2     1  UNL1        0.2516
      6 O         138.9901  139.5258  168.3724 O.2     1  UNL1       -0.2698
      7 C         139.1084  139.7429  165.3826 C.3     1  UNL1        0.1799
      8 C         139.1676  139.8515  163.8878 C.2     1  UNL1        0.2497
      9 O         138.2587  139.0135  163.0383 O.2     1  UNL1       -0.2727
     10 C         140.8672  141.3104  168.5763 C.ar    1  UNL1        0.0811
     11 C         140.3921  142.6307  169.1066 C.ar    1  UNL1        0.0091
     12 C         141.3011  143.4687  169.9560 C.ar    1  UNL1        0.0299
     13 C         142.6851  142.9865  170.2751 C.ar    1  UNL1        0.1424
     14 F         143.5941  143.8245  171.1245 F       1  UNL1       -0.2041
     15 C         143.1602  141.6662  169.7449 C.ar    1  UNL1        0.0594
     16 C         142.2513  140.8282  168.8955 C.ar    1  UNL1        0.1467
     17 F         142.7263  139.5079  168.3652 F       1  UNL1       -0.2039
     18 C         140.3133  141.1237  158.7576 C.ar    1  UNL1        0.1386
     19 C         141.2306  140.1805  159.4780 C.ar    1  UNL1        0.0382
     20 C         141.1714  140.0720  160.9728 C.ar    1  UNL1        0.0180
     21 C         140.1949  140.9067  161.7473 C.ar    1  UNL1        0.0541
     22 C         139.2777  141.8499  161.0270 C.ar    1  UNL1        0.0180
     23 C         139.3369  141.9584  159.5321 C.ar    1  UNL1        0.0382
     24 O         140.3725  141.2323  157.2627 O.3     1  UNL1       -0.4754
     25 C         141.3453  142.1739  156.6170 C.3     1  UNL1        0.2068
     26 C         141.2244  143.6513  156.8470 C.3     1  UNL1        0.0646
     27 C         142.2595  144.3710  157.6597 C.3     1  UNL1        0.0759
     28 C         144.2421  142.3613  159.2967 C.3     1  UNL1        0.0173
     29 C         143.2123  143.2693  159.9009 C.3     1  UNL1        0.0576
     30 C         142.9131  143.4129  161.3637 C.3     1  UNL1        0.0174
     31 C         141.8168  144.4255  161.5154 C.3     1  UNL1        0.0187
     32 C         141.4385  144.9076  160.1463 C.3     1  UNL1        0.0721
     33 N         142.3010  144.1930  159.1485 N.3     1  UNL1       -0.2738
@<TRIPOS>BOND
     1    29    28    1
     2    29    30    1
     3    30    31    1
     4    31    32    1
     5    32    33    1
     6    33    27    1
     7    27    26    1
     8    26    25    1
     9    25    24    1
    10    24    18    1
    11    18    19   ar
    12    19    20   ar
    13    20    21   ar
    14    21     1    1
    15     1     2    1
    16     2     3    1
    17     3     4    1
    18     4     5   am
    19     5     6    2
    20     5    10    1
    21    10    11   ar
    22    11    12   ar
    23    12    13   ar
    24    13    14    1
    25    13    15   ar
    26    15    16   ar
    27    16    17    1
    28     4     7    1
    29     7     8    1
    30     8     9    2
    31    21    22   ar
    32    22    23   ar
    33    33    29    1
    34    23    18   ar
    35     8     1   am
    36    16    10   ar
@<TRIPOS>MOLECULE
*****
 33 36 0 0 0
SMALL
GASTEIGER

@<TRIPOS>ATOM
      1 N         142.4352  140.7947  163.1510 N.am    1  UNL1       -0.2555
      2 C         141.6167  141.6573  164.0653 C.3     1  UNL1        0.1197
      3 C         141.6011  141.3836  165.5401 C.3     1  UNL1        0.1160
      4 N         142.4041  140.2473  166.1005 N.am    1  UNL1       -0.2659
      5 C         142.3886  139.9736  167.5752 C.2     1  UNL1        0.2516
      6 O         143.1916  138.8373  168.1357 O.2     1  UNL1       -0.2698
      7 C         143.2226  139.3847  165.1862 C.3     1  UNL1        0.1799
      8 C         143.2382  139.6584  163.7115 C.2     1  UNL1        0.2497
      9 O         144.0567  138.7958  162.7971 O.2     1  UNL1       -0.2727
     10 C         141.5701  140.8362  168.4895 C.ar    1  UNL1        0.0811
     11 C         140.2349  140.3569  168.9768 C.ar    1  UNL1        0.0091
     12 C         139.4164  141.2196  169.8912 C.ar    1  UNL1        0.0299
     13 C         139.9331  142.5615  170.3181 C.ar    1  UNL1        0.1424
     14 F         139.1146  143.4240  171.2324 F       1  UNL1       -0.2041
     15 C         141.2683  143.0407  169.8308 C.ar    1  UNL1        0.0594
     16 C         142.0868  142.1782  168.9165 C.ar    1  UNL1        0.1467
     17 F         143.4220  142.6574  168.4292 F       1  UNL1       -0.2039
     18 C         142.4818  141.6157  158.7268 C.ar    1  UNL1        0.1386
     19 C         141.5877  140.5469  159.2819 C.ar    1  UNL1        0.0382
     20 C         141.5722  140.2732  160.7566 C.ar    1  UNL1        0.0180
     21 C         142.4507  141.0684  161.6763 C.ar    1  UNL1        0.0541
     22 C         143.3448  142.1373  161.1212 C.ar    1  UNL1        0.0180
     23 C         143.3603  142.4109  159.6465 C.ar    1  UNL1        0.0382
     24 O         142.4973  141.8894  157.2520 O.3     1  UNL1       -0.4754
     25 C         141.5351  142.8775  156.6624 C.3     1  UNL1        0.2068
     26 C         140.0579  142.6780  156.8307 C.3     1  UNL1        0.0646
     27 C         139.2693  143.6113  157.7007 C.3     1  UNL1        0.0759
     28 C         141.0505  145.2963  159.8542 C.3     1  UNL1        0.0173
     29 C         140.0815  144.1983  160.1787 C.3     1  UNL1        0.0576
     30 C         139.7610  143.6820  161.5501 C.3     1  UNL1        0.0174
     31 C         138.7442  142.5884  161.4079 C.3     1  UNL1        0.0187
     32 C         138.4363  142.4288  159.9485 C.3     1  UNL1        0.0721
     33 N         139.2628  143.4238  159.1889 N.3     1  UNL1       -0.2738
@<TRIPOS>BOND
     1    29    28    1
     2    29    30    1
     3    30    31    1
     4    31    32    1
     5    32    33    1
     6    33    27    1
     7    27    26    1
     8    26    25    1
     9    25    24    1
    10    24    18    1
    11    18    19   ar
    12    19    20   ar
    13    20    21   ar
    14    21     1    1
    15     1     2    1
    16     2     3    1
    17     3     4    1
    18     4     5   am
    19     5     6    2
    20     5    10    1
    21    10    11   ar
    22    11    12   ar
    23    12    13   ar
    24    13    14    1
    25    13    15   ar
    26    15    16   ar
    27    16    17    1
    28     4     7    1
    29     7     8    1
    30     8     9    2
    31    21    22   ar
    32    22    23   ar
    33    33    29    1
    34    23    18   ar
    35     8     1   am
    36    16    10   ar
@<TRIPOS>MOLECULE
*****
 33 36 0 0 0
SMALL
GASTEIGER

@<TRIPOS>ATOM
      1 N         140.8783  139.6192  158.5818 N.am    1  UNL1       -0.2555
      2 C         140.2756  138.3818  157.9857 C.3     1  UNL1        0.1197
      3 C         141.1093  137.4830  157.1212 C.3     1  UNL1        0.1160
      4 N         142.5457  137.8217  156.8529 N.am    1  UNL1       -0.2659
      5 C         143.3794  136.9231  155.9885 C.2     1  UNL1        0.2516
      6 O         144.8159  137.2618  155.7203 O.2     1  UNL1       -0.2698
      7 C         143.1485  139.0592  157.4492 C.3     1  UNL1        0.1799
      8 C         142.3148  139.9579  158.3136 C.2     1  UNL1        0.2497
      9 O         142.9175  141.1954  158.9099 O.2     1  UNL1       -0.2727
     10 C         142.7767  135.6857  155.3923 C.ar    1  UNL1        0.0811
     11 C         142.3022  135.6932  153.9694 C.ar    1  UNL1        0.0091
     12 C         141.6994  134.4557  153.3732 C.ar    1  UNL1        0.0299
     13 C         141.5712  133.2108  154.2000 C.ar    1  UNL1        0.1424
     14 F         140.9685  131.9733  153.6038 F       1  UNL1       -0.2041
     15 C         142.0457  133.2032  155.6229 C.ar    1  UNL1        0.0594
     16 C         142.6484  134.4406  156.2191 C.ar    1  UNL1        0.1467
     17 F         143.1229  134.4331  157.6421 F       1  UNL1       -0.2039
     18 C         138.3773  142.3153  161.1753 C.ar    1  UNL1        0.1386
     19 C         139.0097  141.0874  161.7603 C.ar    1  UNL1        0.0382
     20 C         139.8433  140.1887  160.8958 C.ar    1  UNL1        0.0180
     21 C         140.0446  140.5179  159.4463 C.ar    1  UNL1        0.0541
     22 C         139.4123  141.7459  158.8613 C.ar    1  UNL1        0.0180
     23 C         138.5786  142.6445  159.7258 C.ar    1  UNL1        0.0382
     24 O         137.5436  143.2141  162.0397 O.3     1  UNL1       -0.4754
     25 C         137.6574  143.1348  163.5333 C.3     1  UNL1        0.2068
     26 C         138.1936  144.3022  164.3077 C.3     1  UNL1        0.0646
     27 C         139.6749  144.4925  164.4480 C.3     1  UNL1        0.0759
     28 C         139.7688  146.2466  161.6978 C.3     1  UNL1        0.0173
     29 C         140.6202  145.0521  162.0112 C.3     1  UNL1        0.0576
     30 C         141.6643  144.4542  161.1154 C.3     1  UNL1        0.0174
     31 C         142.2664  143.2783  161.8260 C.3     1  UNL1        0.0187
     32 C         141.5944  143.1495  163.1608 C.3     1  UNL1        0.0721
     33 N         140.5770  144.2458  163.2753 N.3     1  UNL1       -0.2738
@<TRIPOS>BOND
     1    29    28    1
     2    29    30    1
     3    30    31    1
     4    31    32    1
     5    32    33    1
     6    33    27    1
     7    27    26    1
     8    26    25    1
     9    25    24    1
    10    24    18    1
    11    18    19   ar
    12    19    20   ar
    13    20    21   ar
    14    21     1    1
    15     1     2    1
    16     2     3    1
    17     3     4    1
    18     4     5   am
    19     5     6    2
    20     5    10    1
    21    10    11   ar
    22    11    12   ar
    23    12    13   ar
    24    13    14    1
    25    13    15   ar
    26    15    16   ar
    27    16    17    1
    28     4     7    1
    29     7     8    1
    30     8     9    2
    31    21    22   ar
    32    22    23   ar
    33    33    29    1
    34    23    18   ar
    35     8     1   am
    36    16    10   ar
@<TRIPOS>MOLECULE
*****
 33 36 0 0 0
SMALL
GASTEIGER

@<TRIPOS>ATOM
      1 N         141.6819  139.4140  163.5046 N.am    1  UNL1       -0.2555
      2 C         142.4532  140.3617  164.3745 C.3     1  UNL1        0.1197
      3 C         142.0129  140.6109  165.7867 C.3     1  UNL1        0.1160
      4 N         140.8012  139.9124  166.3288 N.am    1  UNL1       -0.2659
      5 C         140.3608  140.1616  167.7408 C.2     1  UNL1        0.2516
      6 O         139.1491  139.4631  168.2829 O.2     1  UNL1       -0.2698
      7 C         140.0298  138.9647  165.4587 C.3     1  UNL1        0.1799
      8 C         140.4701  138.7156  164.0466 C.2     1  UNL1        0.2497
      9 O         139.6987  137.7679  163.1766 O.2     1  UNL1       -0.2727
     10 C         141.1322  141.1092  168.6108 C.ar    1  UNL1        0.0811
     11 C         140.5584  142.4534  168.9486 C.ar    1  UNL1        0.0091
     12 C         141.3298  143.4010  169.8186 C.ar    1  UNL1        0.0299
     13 C         142.6750  143.0045  170.3508 C.ar    1  UNL1        0.1424
     14 F         143.4464  143.9522  171.2208 F       1  UNL1       -0.2041
     15 C         143.2488  141.6604  170.0130 C.ar    1  UNL1        0.0594
     16 C         142.4774  140.7128  169.1430 C.ar    1  UNL1        0.1467
     17 F         143.0512  139.3687  168.8052 F       1  UNL1       -0.2039
     18 C         143.0029  138.6663  159.2683 C.ar    1  UNL1        0.1386
     19 C         143.0658  137.5605  160.2798 C.ar    1  UNL1        0.0382
     20 C         142.6254  137.8097  161.6918 C.ar    1  UNL1        0.0180
     21 C         142.1222  139.1648  162.0924 C.ar    1  UNL1        0.0541
     22 C         142.0593  140.2707  161.0810 C.ar    1  UNL1        0.0180
     23 C         142.4997  140.0214  159.6689 C.ar    1  UNL1        0.0382
     24 O         143.4432  138.4171  157.8562 O.3     1  UNL1       -0.4754
     25 C         142.4231  138.2890  156.7640 C.3     1  UNL1        0.2068
     26 C         141.0601  137.7431  157.0710 C.3     1  UNL1        0.0646
     27 C         139.8587  138.6376  156.9922 C.3     1  UNL1        0.0759
     28 C         137.8783  141.2160  157.2735 C.3     1  UNL1        0.0173
     29 C         138.2706  140.2809  158.3787 C.3     1  UNL1        0.0576
     30 C         137.8215  140.3667  159.8073 C.3     1  UNL1        0.0174
     31 C         138.4543  139.2346  160.5610 C.3     1  UNL1        0.0187
     32 C         139.2944  138.4491  159.5981 C.3     1  UNL1        0.0721
     33 N         139.1809  139.0957  158.2494 N.3     1  UNL1       -0.2738
@<TRIPOS>BOND
     1    29    28    1
     2    29    30    1
     3    30    31    1
     4    31    32    1
     5    32    33    1
     6    33    27    1
     7    27    26    1
     8    26    25    1
     9    25    24    1
    10    24    18    1
    11    18    19   ar
    12    19    20   ar
    13    20    21   ar
    14    21     1    1
    15     1     2    1
    16     2     3    1
    17     3     4    1
    18     4     5   am
    19     5     6    2
    20     5    10    1
    21    10    11   ar
    22    11    12   ar
    23    12    13   ar
    24    13    14    1
    25    13    15   ar
    26    15    16   ar
    27    16    17    1
    28     4     7    1
    29     7     8    1
    30     8     9    2
    31    21    22   ar
    32    22    23   ar
    33    33    29    1
    34    23    18   ar
    35     8     1   am
    36    16    10   ar
@<TRIPOS>MOLECULE
*****
 33 36 0 0 0
SMALL
GASTEIGER

@<TRIPOS>ATOM
      1 N         143.1610  138.8616  161.3712 N.am    1  UNL1       -0.2555
      2 C         142.7169  137.6400  160.6226 C.3     1  UNL1        0.1197
      3 C         142.6390  137.6653  159.1248 C.3     1  UNL1        0.1160
      4 N         143.0051  138.9122  158.3757 N.am    1  UNL1       -0.2659
      5 C         142.9271  138.9375  156.8779 C.2     1  UNL1        0.2516
      6 O         143.2932  140.1845  156.1288 O.2     1  UNL1       -0.2698
      7 C         143.4492  140.1338  159.1244 C.3     1  UNL1        0.1799
      8 C         143.5271  140.1085  160.6221 C.2     1  UNL1        0.2497
      9 O         143.9712  141.3301  161.3708 O.2     1  UNL1       -0.2727
     10 C         142.4830  137.7160  156.1293 C.ar    1  UNL1        0.0811
     11 C         141.0274  137.3582  156.0738 C.ar    1  UNL1        0.0091
     12 C         140.5833  136.1366  155.3251 C.ar    1  UNL1        0.0299
     13 C         141.5949  135.2727  154.6320 C.ar    1  UNL1        0.1424
     14 F         141.1508  134.0511  153.8834 F       1  UNL1       -0.2041
     15 C         143.0506  135.6305  154.6876 C.ar    1  UNL1        0.0594
     16 C         143.4947  136.8520  155.4362 C.ar    1  UNL1        0.1467
     17 F         144.9503  137.2098  155.4917 F       1  UNL1       -0.2039
     18 C         143.3950  138.7857  165.8645 C.ar    1  UNL1        0.1386
     19 C         144.5875  139.2079  165.0584 C.ar    1  UNL1        0.0382
     20 C         144.5095  139.2332  163.5607 C.ar    1  UNL1        0.0180
     21 C         143.2390  138.8363  162.8690 C.ar    1  UNL1        0.0541
     22 C         142.0466  138.4141  163.6751 C.ar    1  UNL1        0.0180
     23 C         142.1246  138.3888  165.1728 C.ar    1  UNL1        0.0382
     24 O         143.4730  138.7604  167.3623 O.3     1  UNL1       -0.4754
     25 C         142.4750  139.5271  168.1783 C.3     1  UNL1        0.2068
     26 C         142.7748  140.9348  168.6012 C.3     1  UNL1        0.0646
     27 C         142.0449  142.0805  167.9654 C.3     1  UNL1        0.0759
     28 C         144.0042  142.8481  165.4712 C.3     1  UNL1        0.0173
     29 C         142.5840  142.3776  165.3643 C.3     1  UNL1        0.0576
     30 C         141.8150  142.1773  164.0921 C.3     1  UNL1        0.0174
     31 C         140.4390  141.7007  164.4522 C.3     1  UNL1        0.0187
     32 C         140.3577  141.6064  165.9471 C.3     1  UNL1        0.0721
     33 N         141.6833  142.0248  166.5107 N.3     1  UNL1       -0.2738
@<TRIPOS>BOND
     1    29    28    1
     2    29    30    1
     3    30    31    1
     4    31    32    1
     5    32    33    1
     6    33    27    1
     7    27    26    1
     8    26    25    1
     9    25    24    1
    10    24    18    1
    11    18    19   ar
    12    19    20   ar
    13    20    21   ar
    14    21     1    1
    15     1     2    1
    16     2     3    1
    17     3     4    1
    18     4     5   am
    19     5     6    2
    20     5    10    1
    21    10    11   ar
    22    11    12   ar
    23    12    13   ar
    24    13    14    1
    25    13    15   ar
    26    15    16   ar
    27    16    17    1
    28     4     7    1
    29     7     8    1
    30     8     9    2
    31    21    22   ar
    32    22    23   ar
    33    33    29    1
    34    23    18   ar
    35     8     1   am
    36    16    10   ar
@<TRIPOS>MOLECULE
*****
 33 36 0 0 0
SMALL
GASTEIGER

@<TRIPOS>ATOM
      1 N         141.0680  139.1520  163.4834 N.am    1  UNL1       -0.2555
      2 C         141.9384  140.0699  164.2896 C.3     1  UNL1        0.1197
      3 C         141.5924  140.3688  165.7182 C.3     1  UNL1        0.1160
      4 N         140.3761  139.7499  166.3406 N.am    1  UNL1       -0.2659
      5 C         140.0301  140.0488  167.7692 C.2     1  UNL1        0.2516
      6 O         138.8137  139.4299  168.3916 O.2     1  UNL1       -0.2698
      7 C         139.5057  138.8320  165.5343 C.3     1  UNL1        0.1799
      8 C         139.8517  138.5331  164.1058 C.2     1  UNL1        0.2497
      9 O         138.9813  137.6152  163.2995 O.2     1  UNL1       -0.2727
     10 C         140.9004  140.9666  168.5754 C.ar    1  UNL1        0.0811
     11 C         140.4535  142.3710  168.8545 C.ar    1  UNL1        0.0091
     12 C         141.3239  143.2888  169.6608 C.ar    1  UNL1        0.0299
     13 C         142.6413  142.8023  170.1878 C.ar    1  UNL1        0.1424
     14 F         143.5117  143.7201  170.9940 F       1  UNL1       -0.2041
     15 C         143.0882  141.3979  169.9087 C.ar    1  UNL1        0.0594
     16 C         142.2179  140.4801  169.1025 C.ar    1  UNL1        0.1467
     17 F         142.6648  139.0757  168.8233 F       1  UNL1       -0.2039
     18 C         142.1059  138.2553  159.1975 C.ar    1  UNL1        0.1386
     19 C         140.9582  139.1670  159.5163 C.ar    1  UNL1        0.0382
     20 C         140.6123  139.4659  160.9449 C.ar    1  UNL1        0.0180
     21 C         141.4140  138.8531  162.0547 C.ar    1  UNL1        0.0541
     22 C         142.5616  137.9414  161.7359 C.ar    1  UNL1        0.0180
     23 C         142.9076  137.6425  160.3073 C.ar    1  UNL1        0.0382
     24 O         142.4518  137.9563  157.7688 O.3     1  UNL1       -0.4754
     25 C         141.9035  138.8159  156.6687 C.3     1  UNL1        0.2068
     26 C         142.8311  139.4233  155.6583 C.3     1  UNL1        0.0646
     27 C         144.3138  139.2457  155.7993 C.3     1  UNL1        0.0759
     28 C         144.1881  141.1842  158.4214 C.3     1  UNL1        0.0173
     29 C         145.1324  141.3259  157.2646 C.3     1  UNL1        0.0576
     30 C         146.1847  142.3836  157.1099 C.3     1  UNL1        0.0174
     31 C         146.8929  142.1463  155.8090 C.3     1  UNL1        0.0187
     32 C         146.2782  140.9419  155.1598 C.3     1  UNL1        0.0721
     33 N         145.1902  140.4349  156.0593 N.3     1  UNL1       -0.2738
@<TRIPOS>BOND
     1    29    28    1
     2    29    30    1
     3    30    31    1
     4    31    32    1
     5    32    33    1
     6    33    27    1
     7    27    26    1
     8    26    25    1
     9    25    24    1
    10    24    18    1
    11    18    19   ar
    12    19    20   ar
    13    20    21   ar
    14    21     1    1
    15     1     2    1
    16     2     3    1
    17     3     4    1
    18     4     5   am
    19     5     6    2
    20     5    10    1
    21    10    11   ar
    22    11    12   ar
    23    12    13   ar
    24    13    14    1
    25    13    15   ar
    26    15    16   ar
    27    16    17    1
    28     4     7    1
    29     7     8    1
    30     8     9    2
    31    21    22   ar
    32    22    23   ar
    33    33    29    1
    34    23    18   ar
    35     8     1   am
    36    16    10   ar
