@<TRIPOS>MOLECULE
*****
 25 29 0 0 0
SMALL
GASTEIGER

@<TRIPOS>ATOM
      1 C         139.3584  138.0633  164.3780 C.3     1  UNL1        0.0768
      2 C         138.3072  137.7432  165.3990 C.3     1  UNL1        0.0096
      3 C         139.3705  138.7548  165.7091 C.3     1  UNL1        0.0113
      4 C         140.5913  139.5236  165.2987 C.3     1  UNL1        0.0178
      5 C         141.2121  140.5068  166.2462 C.3     1  UNL1        0.0721
      6 N         140.6121  140.7212  167.6041 N.3     1  UNL1       -0.2738
      7 C         139.3913  139.9524  168.0146 C.3     1  UNL1        0.0721
      8 C         138.7705  138.9692  167.0670 C.3     1  UNL1        0.0178
      9 O         141.0757  136.8644  162.8408 O.2     1  UNL1       -0.2749
     10 C         139.9584  137.8489  163.0201 C.2     1  UNL1        0.2252
     11 N         139.4411  138.6192  161.8414 N.am    1  UNL1       -0.2767
     12 C         138.3238  139.6038  162.0208 C.3     1  UNL1        0.1107
     13 C         137.8064  140.3740  160.8421 C.3     1  UNL1        0.0939
     14 N         138.4065  140.1596  159.4842 N.3     1  UNL1       -0.2711
     15 C         139.5238  139.1750  159.3049 C.3     1  UNL1        0.0939
     16 C         140.0411  138.4048  160.4835 C.3     1  UNL1        0.1107
     17 C         137.8892  140.9298  158.3055 C.3     1  UNL1        0.0577
     18 C         137.0159  141.0110  157.0886 C.3     1  UNL1        0.0173
     19 C         137.8664  142.1826  157.4810 C.3     1  UNL1        0.0173
     20 C         141.2330  141.7045  168.5517 C.3     1  UNL1        0.0625
     21 C         142.6569  141.5281  168.9889 C.3     1  UNL1        0.0481
     22 C         143.2778  142.5114  169.9365 C.3     1  UNL1        0.1435
     23 O         142.4747  143.6710  170.4467 O.3     1  UNL1       -0.3537
     24 C         141.0506  143.8473  170.0094 C.3     1  UNL1        0.1435
     25 C         140.4298  142.8640  169.0619 C.3     1  UNL1        0.0481
@<TRIPOS>BOND
     1     9    10    2
     2    10     1    1
     3     1     2    1
     4     2     3    1
     5     3     4    1
     6     4     5    1
     7     5     6    1
     8     6    20    1
     9    20    21    1
    10    21    22    1
    11    22    23    1
    12    23    24    1
    13    24    25    1
    14     6     7    1
    15     7     8    1
    16    10    11   am
    17    11    12    1
    18    12    13    1
    19    13    14    1
    20    14    17    1
    21    17    18    1
    22    18    19    1
    23    14    15    1
    24    15    16    1
    25     3     1    1
    26    25    20    1
    27    16    11    1
    28     8     3    1
    29    19    17    1
@<TRIPOS>MOLECULE
*****
 25 29 0 0 0
SMALL
GASTEIGER

@<TRIPOS>ATOM
      1 C         138.7904  138.1915  165.5340 C.3     1  UNL1        0.0768
      2 C         139.1858  137.0135  164.6938 C.3     1  UNL1        0.0096
      3 C         138.9041  138.3364  164.0454 C.3     1  UNL1        0.0113
      4 C         138.5132  139.7803  164.1561 C.3     1  UNL1        0.0178
      5 C         138.4162  140.6278  162.9223 C.3     1  UNL1        0.0721
      6 N         138.7103  140.0313  161.5777 N.3     1  UNL1       -0.2738
      7 C         139.1012  138.5875  161.4670 C.3     1  UNL1        0.0721
      8 C         139.1981  137.7400  162.7008 C.3     1  UNL1        0.0178
      9 O         137.1690  138.5440  167.5332 O.2     1  UNL1       -0.2749
     10 C         138.4964  138.7879  166.8785 C.2     1  UNL1        0.2252
     11 N         139.5298  139.6284  167.5684 N.am    1  UNL1       -0.2767
     12 C         140.8571  139.8723  166.9137 C.3     1  UNL1        0.1107
     13 C         141.8905  140.7127  167.6036 C.3     1  UNL1        0.0939
     14 N         141.5965  141.3092  168.9481 N.3     1  UNL1       -0.2711
     15 C         140.2691  141.0652  169.6028 C.3     1  UNL1        0.0939
     16 C         139.2358  140.2248  168.9130 C.3     1  UNL1        0.1107
     17 C         142.6298  142.1495  169.6380 C.3     1  UNL1        0.0577
     18 C         142.9825  143.2408  170.6050 C.3     1  UNL1        0.0173
     19 C         144.0669  142.5140  169.8660 C.3     1  UNL1        0.0173
     20 C         138.6133  140.8789  160.3438 C.3     1  UNL1        0.0625
     21 C         137.9480  140.3383  159.1130 C.3     1  UNL1        0.0481
     22 C         137.8510  141.1858  157.8791 C.3     1  UNL1        0.1435
     23 O         138.4194  142.5739  157.8762 O.3     1  UNL1       -0.3537
     24 C         139.0847  143.1146  159.1071 C.3     1  UNL1        0.1435
     25 C         139.1817  142.2670  160.3409 C.3     1  UNL1        0.0481
@<TRIPOS>BOND
     1     9    10    2
     2    10     1    1
     3     1     2    1
     4     2     3    1
     5     3     4    1
     6     4     5    1
     7     5     6    1
     8     6    20    1
     9    20    21    1
    10    21    22    1
    11    22    23    1
    12    23    24    1
    13    24    25    1
    14     6     7    1
    15     7     8    1
    16    10    11   am
    17    11    12    1
    18    12    13    1
    19    13    14    1
    20    14    17    1
    21    17    18    1
    22    18    19    1
    23    14    15    1
    24    15    16    1
    25     3     1    1
    26    25    20    1
    27    16    11    1
    28     8     3    1
    29    19    17    1
@<TRIPOS>MOLECULE
*****
 25 29 0 0 0
SMALL
GASTEIGER

@<TRIPOS>ATOM
      1 C         144.1679  140.3111  163.8691 C.3     1  UNL1        0.0768
      2 C         144.0748  138.9020  164.3748 C.3     1  UNL1        0.0096
      3 C         143.5578  140.0348  165.2112 C.3     1  UNL1        0.0113
      4 C         143.3130  141.5023  165.4020 C.3     1  UNL1        0.0178
      5 C         142.6622  141.9967  166.6598 C.3     1  UNL1        0.0721
      6 N         142.2562  141.0236  167.7267 N.3     1  UNL1       -0.2738
      7 C         142.5009  139.5561  167.5358 C.3     1  UNL1        0.0721
      8 C         143.1517  139.0617  166.2781 C.3     1  UNL1        0.0178
      9 O         145.9950  141.7573  162.7200 O.2     1  UNL1       -0.2749
     10 C         144.5740  141.2842  162.8022 C.2     1  UNL1        0.2252
     11 N         143.5589  141.7841  161.8174 N.am    1  UNL1       -0.2767
     12 C         142.1379  141.3110  161.8995 C.3     1  UNL1        0.1107
     13 C         141.1228  141.8110  160.9148 C.3     1  UNL1        0.0939
     14 N         141.5288  142.7841  159.8479 N.3     1  UNL1       -0.2711
     15 C         142.9499  143.2572  159.7658 C.3     1  UNL1        0.0939
     16 C         143.9649  142.7572  160.7505 C.3     1  UNL1        0.1107
     17 C         140.5138  143.2841  158.8631 C.3     1  UNL1        0.0577
     18 C         139.9749  144.3855  157.9991 C.3     1  UNL1        0.0173
     19 C         139.2947  143.0487  158.0215 C.3     1  UNL1        0.0173
     20 C         141.6053  141.5181  168.9845 C.3     1  UNL1        0.0625
     21 C         141.7505  140.7414  170.2594 C.3     1  UNL1        0.0481
     22 C         141.0997  141.2358  171.5172 C.3     1  UNL1        0.1435
     23 O         140.3037  142.5071  171.4999 O.3     1  UNL1       -0.3537
     24 C         140.1585  143.2839  170.2249 C.3     1  UNL1        0.1435
     25 C         140.8093  142.7894  168.9672 C.3     1  UNL1        0.0481
@<TRIPOS>BOND
     1     9    10    2
     2    10     1    1
     3     1     2    1
     4     2     3    1
     5     3     4    1
     6     4     5    1
     7     5     6    1
     8     6    20    1
     9    20    21    1
    10    21    22    1
    11    22    23    1
    12    23    24    1
    13    24    25    1
    14     6     7    1
    15     7     8    1
    16    10    11   am
    17    11    12    1
    18    12    13    1
    19    13    14    1
    20    14    17    1
    21    17    18    1
    22    18    19    1
    23    14    15    1
    24    15    16    1
    25     3     1    1
    26    25    20    1
    27    16    11    1
    28     8     3    1
    29    19    17    1
@<TRIPOS>MOLECULE
*****
 25 29 0 0 0
SMALL
GASTEIGER

@<TRIPOS>ATOM
      1 C         138.2764  139.8376  164.0872 C.3     1  UNL1        0.0768
      2 C         138.3102  138.6286  164.9743 C.3     1  UNL1        0.0096
      3 C         138.9235  139.9164  165.4381 C.3     1  UNL1        0.0113
      4 C         139.2582  141.3580  165.1937 C.3     1  UNL1        0.0178
      5 C         139.9859  142.1471  166.2414 C.3     1  UNL1        0.0721
      6 N         140.3790  141.4945  167.5336 N.3     1  UNL1       -0.2738
      7 C         140.0443  140.0529  167.7780 C.3     1  UNL1        0.0721
      8 C         139.3166  139.2639  166.7303 C.3     1  UNL1        0.0178
      9 O         136.9753  141.6840  162.8036 O.2     1  UNL1       -0.2749
     10 C         137.8834  140.4902  162.7950 C.2     1  UNL1        0.2252
     11 N         138.3984  139.9489  161.4943 N.am    1  UNL1       -0.2767
     12 C         139.3065  138.7550  161.4858 C.3     1  UNL1        0.1107
     13 C         139.8216  138.2137  160.1851 C.3     1  UNL1        0.0939
     14 N         139.4285  138.8663  158.8930 N.3     1  UNL1       -0.2711
     15 C         138.5204  140.0602  158.9015 C.3     1  UNL1        0.0939
     16 C         138.0054  140.6014  160.2022 C.3     1  UNL1        0.1107
     17 C         139.9435  138.3250  157.5923 C.3     1  UNL1        0.0577
     18 C         140.9789  138.3183  156.5069 C.3     1  UNL1        0.0173
     19 C         139.8001  137.3942  156.4248 C.3     1  UNL1        0.0173
     20 C         141.1068  142.2836  168.5814 C.3     1  UNL1        0.0625
     21 C         142.5356  141.9617  168.9051 C.3     1  UNL1        0.0481
     22 C         143.2633  142.7508  169.9529 C.3     1  UNL1        0.1435
     23 O         142.5622  143.8618  170.6768 O.3     1  UNL1       -0.3537
     24 C         141.1334  144.1837  170.3530 C.3     1  UNL1        0.1435
     25 C         140.4057  143.3946  169.3053 C.3     1  UNL1        0.0481
@<TRIPOS>BOND
     1     9    10    2
     2    10     1    1
     3     1     2    1
     4     2     3    1
     5     3     4    1
     6     4     5    1
     7     5     6    1
     8     6    20    1
     9    20    21    1
    10    21    22    1
    11    22    23    1
    12    23    24    1
    13    24    25    1
    14     6     7    1
    15     7     8    1
    16    10    11   am
    17    11    12    1
    18    12    13    1
    19    13    14    1
    20    14    17    1
    21    17    18    1
    22    18    19    1
    23    14    15    1
    24    15    16    1
    25     3     1    1
    26    25    20    1
    27    16    11    1
    28     8     3    1
    29    19    17    1
@<TRIPOS>MOLECULE
*****
 25 29 0 0 0
SMALL
GASTEIGER

@<TRIPOS>ATOM
      1 C         144.3283  139.9232  163.7370 C.3     1  UNL1        0.0768
      2 C         144.8470  138.8271  164.6199 C.3     1  UNL1        0.0096
      3 C         143.7690  139.7438  165.1172 C.3     1  UNL1        0.0113
      4 C         142.8471  140.9060  164.8946 C.3     1  UNL1        0.0178
      5 C         141.9018  141.3317  165.9786 C.3     1  UNL1        0.0721
      6 N         141.8783  140.5953  167.2852 N.3     1  UNL1       -0.2738
      7 C         142.8002  139.4331  167.5078 C.3     1  UNL1        0.0721
      8 C         143.7455  139.0074  166.4238 C.3     1  UNL1        0.0178
      9 O         144.7874  142.0942  162.3858 O.2     1  UNL1       -0.2749
     10 C         144.3517  140.6596  162.4305 C.2     1  UNL1        0.2252
     11 N         143.9394  139.9613  161.1685 N.am    1  UNL1       -0.2767
     12 C         143.5037  138.5267  161.2131 C.3     1  UNL1        0.1107
     13 C         143.0914  137.8285  159.9511 C.3     1  UNL1        0.0939
     14 N         143.1149  138.5649  158.6446 N.3     1  UNL1       -0.2711
     15 C         143.5506  139.9995  158.6000 C.3     1  UNL1        0.0939
     16 C         143.9629  140.6977  159.8619 C.3     1  UNL1        0.1107
     17 C         142.7026  137.8667  157.3826 C.3     1  UNL1        0.0577
     18 C         142.1189  136.6704  156.6911 C.3     1  UNL1        0.0173
     19 C         142.5723  137.8536  155.8884 C.3     1  UNL1        0.0173
     20 C         140.9329  141.0210  168.3692 C.3     1  UNL1        0.0625
     21 C         139.8929  140.0659  168.8752 C.3     1  UNL1        0.0481
     22 C         138.9475  140.4917  169.9592 C.3     1  UNL1        0.1435
     23 O         139.0422  141.8726  170.5372 O.3     1  UNL1       -0.3537
     24 C         140.0823  142.8277  170.0312 C.3     1  UNL1        0.1435
     25 C         141.0277  142.4019  168.9473 C.3     1  UNL1        0.0481
@<TRIPOS>BOND
     1     9    10    2
     2    10     1    1
     3     1     2    1
     4     2     3    1
     5     3     4    1
     6     4     5    1
     7     5     6    1
     8     6    20    1
     9    20    21    1
    10    21    22    1
    11    22    23    1
    12    23    24    1
    13    24    25    1
    14     6     7    1
    15     7     8    1
    16    10    11   am
    17    11    12    1
    18    12    13    1
    19    13    14    1
    20    14    17    1
    21    17    18    1
    22    18    19    1
    23    14    15    1
    24    15    16    1
    25     3     1    1
    26    25    20    1
    27    16    11    1
    28     8     3    1
    29    19    17    1
@<TRIPOS>MOLECULE
*****
 25 29 0 0 0
SMALL
GASTEIGER

@<TRIPOS>ATOM
      1 C         138.4190  141.7153  163.3864 C.3     1  UNL1        0.0768
      2 C         137.7996  140.3778  163.6645 C.3     1  UNL1        0.0096
      3 C         138.6619  141.0351  164.7010 C.3     1  UNL1        0.0113
      4 C         139.5174  142.1868  165.1389 C.3     1  UNL1        0.0178
      5 C         140.1554  142.1735  166.4963 C.3     1  UNL1        0.0721
      6 N         139.9381  141.0085  167.4158 N.3     1  UNL1       -0.2738
      7 C         139.0826  139.8568  166.9780 C.3     1  UNL1        0.0721
      8 C         138.4446  139.8701  165.6205 C.3     1  UNL1        0.0178
      9 O         137.7268  144.0710  162.5370 O.2     1  UNL1       -0.2749
     10 C         138.6363  142.8803  162.4669 C.2     1  UNL1        0.2252
     11 N         139.7633  142.8546  161.4772 N.am    1  UNL1       -0.2767
     12 C         140.6728  141.6639  161.4071 C.3     1  UNL1        0.1107
     13 C         141.7998  141.6382  160.4174 C.3     1  UNL1        0.0939
     14 N         142.0171  142.8032  159.4979 N.3     1  UNL1       -0.2711
     15 C         141.1075  143.9939  159.5681 C.3     1  UNL1        0.0939
     16 C         139.9807  144.0196  160.5577 C.3     1  UNL1        0.1107
     17 C         143.1440  142.7775  158.5083 C.3     1  UNL1        0.0577
     18 C         144.6061  142.6281  158.2080 C.3     1  UNL1        0.0173
     19 C         143.6338  142.8824  157.0944 C.3     1  UNL1        0.0173
     20 C         140.5762  140.9952  168.7733 C.3     1  UNL1        0.0625
     21 C         141.7058  140.0514  169.0619 C.3     1  UNL1        0.0481
     22 C         142.3439  140.0382  170.4193 C.3     1  UNL1        0.1435
     23 O         141.8524  140.9687  171.4882 O.3     1  UNL1       -0.3537
     24 C         140.7228  141.9125  171.1996 C.3     1  UNL1        0.1435
     25 C         140.0847  141.9257  169.8422 C.3     1  UNL1        0.0481
@<TRIPOS>BOND
     1     9    10    2
     2    10     1    1
     3     1     2    1
     4     2     3    1
     5     3     4    1
     6     4     5    1
     7     5     6    1
     8     6    20    1
     9    20    21    1
    10    21    22    1
    11    22    23    1
    12    23    24    1
    13    24    25    1
    14     6     7    1
    15     7     8    1
    16    10    11   am
    17    11    12    1
    18    12    13    1
    19    13    14    1
    20    14    17    1
    21    17    18    1
    22    18    19    1
    23    14    15    1
    24    15    16    1
    25     3     1    1
    26    25    20    1
    27    16    11    1
    28     8     3    1
    29    19    17    1
@<TRIPOS>MOLECULE
*****
 25 29 0 0 0
SMALL
GASTEIGER

@<TRIPOS>ATOM
      1 C         141.8639  144.2555  162.7640 C.3     1  UNL1        0.0768
      2 C         140.5637  144.9974  162.8585 C.3     1  UNL1        0.0096
      3 C         141.0079  144.1155  163.9877 C.3     1  UNL1        0.0113
      4 C         142.0150  143.1781  164.5850 C.3     1  UNL1        0.0178
      5 C         141.7772  142.5881  165.9434 C.3     1  UNL1        0.0721
      6 N         140.5323  142.9356  166.7045 N.3     1  UNL1       -0.2738
      7 C         139.5251  143.8730  166.1072 C.3     1  UNL1        0.0721
      8 C         139.7629  144.4630  164.7488 C.3     1  UNL1        0.0178
      9 O         144.3967  144.6136  162.3090 O.2     1  UNL1       -0.2749
     10 C         143.1089  143.9080  162.0029 C.2     1  UNL1        0.2252
     11 N         143.0661  142.8549  160.9355 N.am    1  UNL1       -0.2767
     12 C         141.7783  142.1493  160.6294 C.3     1  UNL1        0.1107
     13 C         141.7355  141.0962  159.5620 C.3     1  UNL1        0.0939
     14 N         142.9805  140.7487  158.8009 N.3     1  UNL1       -0.2711
     15 C         144.2683  141.4543  159.1071 C.3     1  UNL1        0.0939
     16 C         144.3110  142.5074  160.1744 C.3     1  UNL1        0.1107
     17 C         142.9377  139.6956  157.7336 C.3     1  UNL1        0.0577
     18 C         143.2549  139.2470  156.3378 C.3     1  UNL1        0.0173
     19 C         142.5464  138.3202  157.2807 C.3     1  UNL1        0.0173
     20 C         140.2945  142.3456  168.0630 C.3     1  UNL1        0.0625
     21 C         139.9990  140.8818  168.2037 C.3     1  UNL1        0.0481
     22 C         139.7612  140.2918  169.5622 C.3     1  UNL1        0.1435
     23 O         139.8189  141.1657  170.7800 O.3     1  UNL1       -0.3537
     24 C         140.1145  142.6296  170.6393 C.3     1  UNL1        0.1435
     25 C         140.3522  143.2195  169.2808 C.3     1  UNL1        0.0481
@<TRIPOS>BOND
     1     9    10    2
     2    10     1    1
     3     1     2    1
     4     2     3    1
     5     3     4    1
     6     4     5    1
     7     5     6    1
     8     6    20    1
     9    20    21    1
    10    21    22    1
    11    22    23    1
    12    23    24    1
    13    24    25    1
    14     6     7    1
    15     7     8    1
    16    10    11   am
    17    11    12    1
    18    12    13    1
    19    13    14    1
    20    14    17    1
    21    17    18    1
    22    18    19    1
    23    14    15    1
    24    15    16    1
    25     3     1    1
    26    25    20    1
    27    16    11    1
    28     8     3    1
    29    19    17    1
@<TRIPOS>MOLECULE
*****
 25 29 0 0 0
SMALL
GASTEIGER

@<TRIPOS>ATOM
      1 C         140.7163  138.4001  163.8322 C.3     1  UNL1        0.0768
      2 C         142.1597  138.1082  164.1171 C.3     1  UNL1        0.0096
      3 C         141.3303  138.8455  165.1262 C.3     1  UNL1        0.0113
      4 C         140.0181  139.4397  165.5444 C.3     1  UNL1        0.0178
      5 C         139.8938  140.1225  166.8742 C.3     1  UNL1        0.0721
      6 N         141.0817  140.2111  167.7857 N.3     1  UNL1       -0.2738
      7 C         142.3940  139.6169  167.3676 C.3     1  UNL1        0.0721
      8 C         142.5183  138.9341  166.0378 C.3     1  UNL1        0.0178
      9 O         138.5064  137.2324  163.1232 O.2     1  UNL1       -0.2749
     10 C         139.5284  138.3115  162.9207 C.2     1  UNL1        0.2252
     11 N         139.3624  139.3021  161.8065 N.am    1  UNL1       -0.2767
     12 C         140.3844  140.3812  161.6039 C.3     1  UNL1        0.1107
     13 C         140.2184  141.3718  160.4898 C.3     1  UNL1        0.0939
     14 N         139.0305  141.2832  159.5782 N.3     1  UNL1       -0.2711
     15 C         138.0085  140.2040  159.7808 C.3     1  UNL1        0.0939
     16 C         138.1745  139.2135  160.8949 C.3     1  UNL1        0.1107
     17 C         138.8645  142.2737  158.4641 C.3     1  UNL1        0.0577
     18 C         139.4077  143.4000  157.6355 C.3     1  UNL1        0.0173
     19 C         138.0339  142.8631  157.3629 C.3     1  UNL1        0.0173
     20 C         140.9574  140.8940  169.1155 C.3     1  UNL1        0.0625
     21 C         141.8344  140.4758  170.2583 C.3     1  UNL1        0.0481
     22 C         141.7100  141.1587  171.5881 C.3     1  UNL1        0.1435
     23 O         140.7086  142.2597  171.7751 O.3     1  UNL1       -0.3537
     24 C         139.8316  142.6779  170.6322 C.3     1  UNL1        0.1435
     25 C         139.9560  141.9950  169.3025 C.3     1  UNL1        0.0481
@<TRIPOS>BOND
     1     9    10    2
     2    10     1    1
     3     1     2    1
     4     2     3    1
     5     3     4    1
     6     4     5    1
     7     5     6    1
     8     6    20    1
     9    20    21    1
    10    21    22    1
    11    22    23    1
    12    23    24    1
    13    24    25    1
    14     6     7    1
    15     7     8    1
    16    10    11   am
    17    11    12    1
    18    12    13    1
    19    13    14    1
    20    14    17    1
    21    17    18    1
    22    18    19    1
    23    14    15    1
    24    15    16    1
    25     3     1    1
    26    25    20    1
    27    16    11    1
    28     8     3    1
    29    19    17    1
@<TRIPOS>MOLECULE
*****
 25 29 0 0 0
SMALL
GASTEIGER

@<TRIPOS>ATOM
      1 C         142.9767  143.5579  161.6363 C.3     1  UNL1        0.0768
      2 C         143.3366  144.4717  162.7699 C.3     1  UNL1        0.0096
      3 C         142.4460  143.2895  163.0133 C.3     1  UNL1        0.0113
      4 C         141.7240  142.0794  162.4993 C.3     1  UNL1        0.0178
      5 C         140.9035  141.2420  163.4349 C.3     1  UNL1        0.0721
      6 N         140.8049  141.6146  164.8845 N.3     1  UNL1       -0.2738
      7 C         141.5269  142.8247  165.3985 C.3     1  UNL1        0.0721
      8 C         142.3475  143.6622  164.4629 C.3     1  UNL1        0.0178
      9 O         144.0338  142.1172  159.7503 O.2     1  UNL1       -0.2749
     10 C         143.0752  143.1852  160.1866 C.2     1  UNL1        0.2252
     11 N         142.2151  143.8806  159.1733 N.am    1  UNL1       -0.2767
     12 C         141.2565  144.9486  159.6097 C.3     1  UNL1        0.1107
     13 C         140.3964  145.6440  158.5964 C.3     1  UNL1        0.0939
     14 N         140.4949  145.2713  157.1467 N.3     1  UNL1       -0.2711
     15 C         141.4536  144.2033  156.7104 C.3     1  UNL1        0.0939
     16 C         142.3136  143.5079  157.7237 C.3     1  UNL1        0.1107
     17 C         139.6349  145.9667  156.1335 C.3     1  UNL1        0.0577
     18 C         138.3551  146.0528  155.3558 C.3     1  UNL1        0.0173
     19 C         139.4251  147.0850  155.1560 C.3     1  UNL1        0.0173
     20 C         139.9843  140.7771  165.8201 C.3     1  UNL1        0.0625
     21 C         140.2334  140.8406  167.2979 C.3     1  UNL1        0.0481
     22 C         139.4128  140.0030  168.2334 C.3     1  UNL1        0.1435
     23 O         138.3431  139.1021  167.6912 O.3     1  UNL1       -0.3537
     24 C         138.0940  139.0387  166.2133 C.3     1  UNL1        0.1435
     25 C         138.9146  139.8762  165.2778 C.3     1  UNL1        0.0481
@<TRIPOS>BOND
     1     9    10    2
     2    10     1    1
     3     1     2    1
     4     2     3    1
     5     3     4    1
     6     4     5    1
     7     5     6    1
     8     6    20    1
     9    20    21    1
    10    21    22    1
    11    22    23    1
    12    23    24    1
    13    24    25    1
    14     6     7    1
    15     7     8    1
    16    10    11   am
    17    11    12    1
    18    12    13    1
    19    13    14    1
    20    14    17    1
    21    17    18    1
    22    18    19    1
    23    14    15    1
    24    15    16    1
    25     3     1    1
    26    25    20    1
    27    16    11    1
    28     8     3    1
    29    19    17    1
