@<TRIPOS>MOLECULE
*****
 42 46 0 0 0
SMALL
GASTEIGER

@<TRIPOS>ATOM
      1 C         141.5277  140.7105  163.3616 C.3     1  UNL1        0.0807
      2 C         141.7440  140.5899  164.8411 C.ar    1  UNL1        0.0375
      3 C         140.9251  141.4155  165.7885 C.ar    1  UNL1        0.0023
      4 C         141.1413  141.2949  167.2680 C.ar    1  UNL1        0.0183
      5 C         140.3224  142.1205  168.2154 C.ar    1  UNL1        0.0118
      6 C         140.5387  141.9999  169.6948 C.ar    1  UNL1        0.0685
      7 C         141.5739  141.0537  170.2268 C.ar    1  UNL1        0.0118
      8 C         142.3929  140.2281  169.2793 C.ar    1  UNL1        0.0199
      9 C         142.1766  140.3487  167.7999 C.ar    1  UNL1        0.0844
     10 N         142.9955  139.5231  166.8524 N.ar    1  UNL1       -0.2119
     11 C         142.7792  139.6437  165.3730 C.ar    1  UNL1        0.2211
     12 C         139.7198  142.8255  170.6423 C.1     1  UNL1        0.1004
     13 N         138.9008  143.6511  171.5898 N.1     1  UNL1       -0.1908
     14 O         143.5981  138.8180  164.4255 O.3     1  UNL1       -0.4563
     15 C         145.0212  139.1959  164.1389 C.3     1  UNL1        0.2542
     16 C         142.5382  141.4219  162.5115 C.ar    1  UNL1        0.0215
     17 C         143.1491  140.7255  161.3317 C.ar    1  UNL1       -0.0007
     18 C         144.1596  141.4369  160.4815 C.ar    1  UNL1        0.0030
     19 C         144.5592  142.8447  160.8111 C.ar    1  UNL1        0.0402
     20 C         143.9482  143.5410  161.9909 C.ar    1  UNL1        0.1761
     21 C         142.9377  142.8296  162.8410 C.ar    1  UNL1        0.1728
     22 O         142.5093  143.7652  163.9325 O.3     1  UNL1       -0.4349
     23 C         143.2551  145.0547  163.7569 C.3     1  UNL1        0.4294
     24 O         144.1444  144.9162  162.5569 O.3     1  UNL1       -0.4346
     25 C         140.3009  140.1197  162.7324 C.3     1  UNL1        0.1162
     26 O         140.8458  138.7415  162.9642 O.3     1  UNL1       -0.3820
     27 H         140.2153  138.0842  162.6305 H       1  UNL1        0.2107
     28 C         138.5131  143.6031  163.3796 C.ar    1  UNL1        0.2272
     29 C         139.0580  142.2250  163.6114 C.ar    1  UNL1        0.0559
     30 C         139.7561  141.4978  162.5006 C.ar    1  UNL1        0.0117
     31 C         139.9093  142.1489  161.1580 C.ar    1  UNL1        0.0559
     32 C         139.3644  143.5271  160.9262 C.ar    1  UNL1        0.2272
     33 N         138.6663  144.2542  162.0370 N.ar    1  UNL1       -0.1767
     34 C         138.6121  144.9382  165.6062 C.3     1  UNL1        0.2542
     35 O         137.8150  144.3303  164.4904 O.3     1  UNL1       -0.4561
     36 O         139.5177  144.1781  159.5835 O.3     1  UNL1       -0.4561
     37 C         140.5440  145.2538  159.3844 C.3     1  UNL1        0.2542
     38 C         139.0741  139.5288  162.1032 C.3     1  UNL1        0.0491
     39 C         139.2073  138.4592  161.0600 C.3     1  UNL1        0.0750
     40 N         139.8545  138.7720  159.7435 N.3     1  UNL1       -0.2702
     41 C         141.2704  138.3497  159.4847 C.3     1  UNL1        0.0897
     42 C         139.0859  139.5071  158.6857 C.3     1  UNL1        0.0897
@<TRIPOS>BOND
     1    34    35    1
     2    35    28    1
     3    28    29   ar
     4    29    30   ar
     5    30    25    1
     6    25    26    1
     7    25    38    1
     8    38    39    1
     9    39    40    1
    10    40    41    1
    11    40    42    1
    12    25     1    1
    13     1     2    1
    14     2     3   ar
    15     3     4   ar
    16     4     5   ar
    17     5     6   ar
    18     6    12    1
    19    12    13    3
    20     6     7   ar
    21     7     8   ar
    22     8     9   ar
    23     9    10   ar
    24    10    11   ar
    25    11    14    1
    26    14    15    1
    27     1    16    1
    28    16    17   ar
    29    17    18   ar
    30    18    19   ar
    31    19    20   ar
    32    20    21   ar
    33    21    22    1
    34    22    23    1
    35    23    24    1
    36    30    31   ar
    37    31    32   ar
    38    32    36    1
    39    36    37    1
    40    32    33   ar
    41    33    28   ar
    42    11     2   ar
    43    21    16   ar
    44     9     4   ar
    45    24    20    1
    46    26    27    1
@<TRIPOS>MOLECULE
*****
 42 46 0 0 0
SMALL
GASTEIGER

@<TRIPOS>ATOM
      1 C         141.7331  140.7461  163.4433 C.3     1  UNL1        0.0807
      2 C         141.9224  140.6546  164.9285 C.ar    1  UNL1        0.0375
      3 C         141.0715  141.4824  165.8454 C.ar    1  UNL1        0.0023
      4 C         141.2608  141.3909  167.3307 C.ar    1  UNL1        0.0183
      5 C         140.4100  142.2187  168.2476 C.ar    1  UNL1        0.0118
      6 C         140.5993  142.1272  169.7327 C.ar    1  UNL1        0.0685
      7 C         141.6395  141.2079  170.3010 C.ar    1  UNL1        0.0118
      8 C         142.4903  140.3801  169.3841 C.ar    1  UNL1        0.0199
      9 C         142.3010  140.4716  167.8989 C.ar    1  UNL1        0.0844
     10 N         143.1519  139.6438  166.9819 N.ar    1  UNL1       -0.2119
     11 C         142.9626  139.7353  165.4968 C.ar    1  UNL1        0.2211
     12 C         139.7484  142.9550  170.6497 C.1     1  UNL1        0.1004
     13 N         138.8976  143.7828  171.5667 N.1     1  UNL1       -0.1908
     14 O         143.8135  138.9075  164.5798 O.3     1  UNL1       -0.4563
     15 C         145.2225  139.3267  164.2819 C.3     1  UNL1        0.2542
     16 C         142.7325  141.4854  162.6040 C.ar    1  UNL1        0.0215
     17 C         143.3786  140.8050  161.4336 C.ar    1  UNL1       -0.0007
     18 C         144.3781  141.5444  160.5943 C.ar    1  UNL1        0.0030
     19 C         144.7314  142.9641  160.9253 C.ar    1  UNL1        0.0402
     20 C         144.0854  143.6444  162.0957 C.ar    1  UNL1        0.1761
     21 C         143.0859  142.9051  162.9350 C.ar    1  UNL1        0.1728
     22 O         142.6164  143.8298  164.0187 O.3     1  UNL1       -0.4349
     23 C         143.3256  145.1406  163.8492 C.3     1  UNL1        0.4294
     24 O         144.2335  145.0260  162.6606 O.3     1  UNL1       -0.4346
     25 C         140.5444  140.0982  162.7974 C.3     1  UNL1        0.1162
     26 O         141.0643  138.7484  163.1945 O.3     1  UNL1       -0.3820
     27 H         140.4516  138.0624  162.8863 H       1  UNL1        0.2107
     28 C         139.6148  143.2547  160.5789 C.ar    1  UNL1        0.2272
     29 C         140.1347  141.9049  160.9759 C.ar    1  UNL1        0.0559
     30 C         140.0244  141.4480  162.4004 C.ar    1  UNL1        0.0117
     31 C         139.3942  142.3409  163.4277 C.ar    1  UNL1        0.0559
     32 C         138.8742  143.6907  163.0306 C.ar    1  UNL1        0.2272
     33 N         138.9845  144.1476  161.6062 N.ar    1  UNL1       -0.1767
     34 C         140.2350  145.0881  158.8456 C.3     1  UNL1        0.2542
     35 O         139.7251  143.7116  159.1544 O.3     1  UNL1       -0.4561
     36 O         138.2440  144.5836  164.0581 O.3     1  UNL1       -0.4561
     37 C         138.8855  144.7477  165.4040 C.3     1  UNL1        0.2542
     38 C         139.3556  139.4503  162.1516 C.3     1  UNL1        0.0491
     39 C         138.2256  138.9436  162.9979 C.3     1  UNL1        0.0750
     40 N         138.4381  138.6944  164.4617 N.3     1  UNL1       -0.2702
     41 C         138.1027  139.7618  165.4606 C.3     1  UNL1        0.0897
     42 C         138.9860  137.3777  164.9265 C.3     1  UNL1        0.0897
@<TRIPOS>BOND
     1    34    35    1
     2    35    28    1
     3    28    29   ar
     4    29    30   ar
     5    30    25    1
     6    25    26    1
     7    25    38    1
     8    38    39    1
     9    39    40    1
    10    40    41    1
    11    40    42    1
    12    25     1    1
    13     1     2    1
    14     2     3   ar
    15     3     4   ar
    16     4     5   ar
    17     5     6   ar
    18     6    12    1
    19    12    13    3
    20     6     7   ar
    21     7     8   ar
    22     8     9   ar
    23     9    10   ar
    24    10    11   ar
    25    11    14    1
    26    14    15    1
    27     1    16    1
    28    16    17   ar
    29    17    18   ar
    30    18    19   ar
    31    19    20   ar
    32    20    21   ar
    33    21    22    1
    34    22    23    1
    35    23    24    1
    36    30    31   ar
    37    31    32   ar
    38    32    36    1
    39    36    37    1
    40    32    33   ar
    41    33    28   ar
    42    11     2   ar
    43    21    16   ar
    44     9     4   ar
    45    24    20    1
    46    26    27    1
@<TRIPOS>MOLECULE
*****
 42 46 0 0 0
SMALL
GASTEIGER

@<TRIPOS>ATOM
      1 C         141.5077  140.7172  163.3224 C.3     1  UNL1        0.0807
      2 C         141.7284  140.5861  164.8003 C.ar    1  UNL1        0.0375
      3 C         140.9180  141.4110  165.7557 C.ar    1  UNL1        0.0023
      4 C         141.1386  141.2798  167.2336 C.ar    1  UNL1        0.0183
      5 C         140.3282  142.1047  168.1890 C.ar    1  UNL1        0.0118
      6 C         140.5489  141.9735  169.6668 C.ar    1  UNL1        0.0685
      7 C         141.5799  141.0175  170.1893 C.ar    1  UNL1        0.0118
      8 C         142.3903  140.1926  169.2339 C.ar    1  UNL1        0.0199
      9 C         142.1696  140.3238  167.7561 C.ar    1  UNL1        0.0844
     10 N         142.9800  139.4989  166.8006 N.ar    1  UNL1       -0.2119
     11 C         142.7594  139.6300  165.3227 C.ar    1  UNL1        0.2211
     12 C         139.7385  142.7984  170.6223 C.1     1  UNL1        0.1004
     13 N         138.9281  143.6232  171.5778 N.1     1  UNL1       -0.1908
     14 O         143.5698  138.8051  164.3673 O.3     1  UNL1       -0.4563
     15 C         144.9808  139.1998  164.0458 C.3     1  UNL1        0.2542
     16 C         142.5207  141.4258  162.4728 C.ar    1  UNL1        0.0215
     17 C         143.1066  140.7393  161.2747 C.ar    1  UNL1       -0.0007
     18 C         144.1196  141.4479  160.4251 C.ar    1  UNL1        0.0030
     19 C         144.5467  142.8430  160.7736 C.ar    1  UNL1        0.0402
     20 C         143.9607  143.5294  161.9718 C.ar    1  UNL1        0.1761
     21 C         142.9477  142.8209  162.8213 C.ar    1  UNL1        0.1728
     22 O         142.5475  143.7448  163.9331 O.3     1  UNL1       -0.4349
     23 C         143.3131  145.0245  163.7706 C.3     1  UNL1        0.4294
     24 O         144.1865  144.8913  162.5584 O.3     1  UNL1       -0.4346
     25 C         140.2741  140.1398  162.6941 C.3     1  UNL1        0.1162
     26 O         140.8091  138.7560  162.9154 O.3     1  UNL1       -0.3820
     27 H         140.1723  138.1057  162.5801 H       1  UNL1        0.2107
     28 C         139.3780  143.5744  160.9192 C.ar    1  UNL1        0.2272
     29 C         139.9130  142.1906  161.1405 C.ar    1  UNL1        0.0559
     30 C         139.7391  141.5235  162.4727 C.ar    1  UNL1        0.0117
     31 C         139.0302  142.2401  163.5835 C.ar    1  UNL1        0.0559
     32 C         138.4952  143.6239  163.3621 C.ar    1  UNL1        0.2272
     33 N         138.6691  144.2910  162.0299 N.ar    1  UNL1       -0.1767
     34 C         140.8707  144.1648  158.8763 C.3     1  UNL1        0.2542
     35 O         139.5519  144.2415  159.5869 O.3     1  UNL1       -0.4561
     36 O         137.7863  144.3405  164.4729 O.3     1  UNL1       -0.4561
     37 C         138.5738  144.9542  165.5924 C.3     1  UNL1        0.2542
     38 C         139.0405  139.5623  162.0658 C.3     1  UNL1        0.0491
     39 C         139.1619  138.5062  161.0076 C.3     1  UNL1        0.0750
     40 N         139.7917  138.8366  159.6869 N.3     1  UNL1       -0.2702
     41 C         141.1971  138.4002  159.3961 C.3     1  UNL1        0.0897
     42 C         139.0162  139.6033  158.6571 C.3     1  UNL1        0.0897
@<TRIPOS>BOND
     1    34    35    1
     2    35    28    1
     3    28    29   ar
     4    29    30   ar
     5    30    25    1
     6    25    26    1
     7    25    38    1
     8    38    39    1
     9    39    40    1
    10    40    41    1
    11    40    42    1
    12    25     1    1
    13     1     2    1
    14     2     3   ar
    15     3     4   ar
    16     4     5   ar
    17     5     6   ar
    18     6    12    1
    19    12    13    3
    20     6     7   ar
    21     7     8   ar
    22     8     9   ar
    23     9    10   ar
    24    10    11   ar
    25    11    14    1
    26    14    15    1
    27     1    16    1
    28    16    17   ar
    29    17    18   ar
    30    18    19   ar
    31    19    20   ar
    32    20    21   ar
    33    21    22    1
    34    22    23    1
    35    23    24    1
    36    30    31   ar
    37    31    32   ar
    38    32    36    1
    39    36    37    1
    40    32    33   ar
    41    33    28   ar
    42    11     2   ar
    43    21    16   ar
    44     9     4   ar
    45    24    20    1
    46    26    27    1
@<TRIPOS>MOLECULE
*****
 42 46 0 0 0
SMALL
GASTEIGER

@<TRIPOS>ATOM
      1 C         141.4496  140.8585  162.5566 C.3     1  UNL1        0.0807
      2 C         141.7386  140.4547  163.9721 C.ar    1  UNL1        0.0375
      3 C         141.9549  141.5039  165.0220 C.ar    1  UNL1        0.0023
      4 C         142.2438  141.1002  166.4375 C.ar    1  UNL1        0.0183
      5 C         142.4602  142.1494  167.4874 C.ar    1  UNL1        0.0118
      6 C         142.7491  141.7457  168.9028 C.ar    1  UNL1        0.0685
      7 C         142.8216  140.2927  169.2684 C.ar    1  UNL1        0.0118
      8 C         142.6053  139.2435  168.2185 C.ar    1  UNL1        0.0199
      9 C         142.3164  139.6472  166.8031 C.ar    1  UNL1        0.0844
     10 N         142.1000  138.5980  165.7531 N.ar    1  UNL1       -0.2119
     11 C         141.8111  139.0018  164.3377 C.ar    1  UNL1        0.2211
     12 C         142.9654  142.7949  169.9528 C.1     1  UNL1        0.1004
     13 N         143.1817  143.8441  171.0027 N.1     1  UNL1       -0.1908
     14 O         141.5948  137.9525  163.2877 O.3     1  UNL1       -0.4563
     15 C         140.2940  137.2078  163.2285 C.3     1  UNL1        0.2542
     16 C         140.1480  140.4742  161.9179 C.ar    1  UNL1        0.0215
     17 C         138.8532  140.7854  162.6082 C.ar    1  UNL1       -0.0007
     18 C         137.5514  140.4012  161.9696 C.ar    1  UNL1        0.0030
     19 C         137.5445  139.7058  160.6405 C.ar    1  UNL1        0.0402
     20 C         138.8394  139.3946  159.9502 C.ar    1  UNL1        0.1761
     21 C         140.1411  139.7788  160.5889 C.ar    1  UNL1        0.1728
     22 O         141.2505  139.3448  159.6774 O.3     1  UNL1       -0.4349
     23 C         140.6345  138.6924  158.4754 C.3     1  UNL1        0.4294
     24 O         139.1443  138.7231  158.6440 O.3     1  UNL1       -0.4346
     25 C         142.4625  141.6464  161.7799 C.3     1  UNL1        0.1162
     26 O         143.4407  140.5167  161.9093 O.3     1  UNL1       -0.3820
     27 H         144.2690  140.7536  161.4636 H       1  UNL1        0.2107
     28 C         140.0472  144.3489  160.1634 C.ar    1  UNL1        0.2272
     29 C         141.0254  143.2192  160.2928 C.ar    1  UNL1        0.0559
     30 C         141.4843  142.7762  161.6504 C.ar    1  UNL1        0.0117
     31 C         140.9649  143.4630  162.8786 C.ar    1  UNL1        0.0559
     32 C         139.9867  144.5927  162.7492 C.ar    1  UNL1        0.2272
     33 N         139.5278  145.0357  161.3916 N.ar    1  UNL1       -0.1767
     34 C         140.4262  145.7439  158.0045 C.3     1  UNL1        0.2542
     35 O         139.5884  144.7919  158.8057 O.3     1  UNL1       -0.4561
     36 O         139.4673  145.2795  163.9775 O.3     1  UNL1       -0.4561
     37 C         138.9003  144.4704  165.1061 C.3     1  UNL1        0.2542
     38 C         143.4753  142.4344  161.0031 C.3     1  UNL1        0.0491
     39 C         144.7815  142.8091  161.6381 C.3     1  UNL1        0.0750
     40 N         144.8923  142.8942  163.1316 N.3     1  UNL1       -0.2702
     41 C         145.6194  141.8250  163.8918 C.3     1  UNL1        0.0897
     42 C         144.2761  144.0485  163.8648 C.3     1  UNL1        0.0897
@<TRIPOS>BOND
     1    34    35    1
     2    35    28    1
     3    28    29   ar
     4    29    30   ar
     5    30    25    1
     6    25    26    1
     7    25    38    1
     8    38    39    1
     9    39    40    1
    10    40    41    1
    11    40    42    1
    12    25     1    1
    13     1     2    1
    14     2     3   ar
    15     3     4   ar
    16     4     5   ar
    17     5     6   ar
    18     6    12    1
    19    12    13    3
    20     6     7   ar
    21     7     8   ar
    22     8     9   ar
    23     9    10   ar
    24    10    11   ar
    25    11    14    1
    26    14    15    1
    27     1    16    1
    28    16    17   ar
    29    17    18   ar
    30    18    19   ar
    31    19    20   ar
    32    20    21   ar
    33    21    22    1
    34    22    23    1
    35    23    24    1
    36    30    31   ar
    37    31    32   ar
    38    32    36    1
    39    36    37    1
    40    32    33   ar
    41    33    28   ar
    42    11     2   ar
    43    21    16   ar
    44     9     4   ar
    45    24    20    1
    46    26    27    1
@<TRIPOS>MOLECULE
*****
 42 46 0 0 0
SMALL
GASTEIGER

@<TRIPOS>ATOM
      1 C         142.1208  141.2651  162.7852 C.3     1  UNL1        0.0807
      2 C         142.3651  141.5409  164.2393 C.ar    1  UNL1        0.0375
      3 C         141.5209  140.8702  165.2821 C.ar    1  UNL1        0.0023
      4 C         141.7653  141.1461  166.7362 C.ar    1  UNL1        0.0183
      5 C         140.9211  140.4754  167.7790 C.ar    1  UNL1        0.0118
      6 C         141.1654  140.7513  169.2330 C.ar    1  UNL1        0.0685
      7 C         142.2540  141.6979  169.6442 C.ar    1  UNL1        0.0118
      8 C         143.0982  142.3685  168.6014 C.ar    1  UNL1        0.0199
      9 C         142.8538  142.0927  167.1474 C.ar    1  UNL1        0.0844
     10 N         143.6980  142.7634  166.1045 N.ar    1  UNL1       -0.2119
     11 C         143.4537  142.4875  164.6505 C.ar    1  UNL1        0.2211
     12 C         140.3212  140.0806  170.2759 C.1     1  UNL1        0.1004
     13 N         139.4771  139.4099  171.3187 N.1     1  UNL1       -0.1908
     14 O         144.2979  143.1582  163.6076 O.3     1  UNL1       -0.4563
     15 C         144.0283  144.5840  163.2276 C.3     1  UNL1        0.2542
     16 C         141.4047  142.2764  161.9400 C.ar    1  UNL1        0.0215
     17 C         142.1026  142.9056  160.7708 C.ar    1  UNL1       -0.0007
     18 C         141.3865  143.9170  159.9255 C.ar    1  UNL1        0.0030
     19 C         139.9726  144.2990  160.2495 C.ar    1  UNL1        0.0402
     20 C         139.2748  143.6697  161.4187 C.ar    1  UNL1        0.1761
     21 C         139.9908  142.6584  162.2639 C.ar    1  UNL1        0.1728
     22 O         139.0526  142.2101  163.3450 O.3     1  UNL1       -0.4349
     23 C         137.7566  142.9444  163.1679 C.3     1  UNL1        0.4294
     24 O         137.8940  143.8465  161.9773 O.3     1  UNL1       -0.4346
     25 C         142.5926  139.9779  162.1765 C.3     1  UNL1        0.1162
     26 O         144.0056  140.4802  162.2095 O.3     1  UNL1       -0.3820
     27 H         144.5978  139.8037  161.8455 H       1  UNL1        0.2107
     28 C         138.9372  139.1481  160.8729 C.ar    1  UNL1        0.2272
     29 C         140.3502  139.6504  160.9060 C.ar    1  UNL1        0.0559
     30 C         141.1796  139.4756  162.1435 C.ar    1  UNL1        0.0117
     31 C         140.5959  138.7985  163.3480 C.ar    1  UNL1        0.0559
     32 C         139.1829  138.2962  163.3150 C.ar    1  UNL1        0.2272
     33 N         138.3535  138.4710  162.0774 N.ar    1  UNL1       -0.1767
     34 C         138.0882  140.6446  158.9261 C.3     1  UNL1        0.2542
     35 O         138.1078  139.3230  159.6353 O.3     1  UNL1       -0.4561
     36 O         138.5993  137.6191  164.5196 O.3     1  UNL1       -0.4561
     37 C         138.4372  138.3795  165.8024 C.3     1  UNL1        0.2542
     38 C         143.0644  138.6907  161.5677 C.3     1  UNL1        0.0491
     39 C         144.0372  138.7131  160.4263 C.3     1  UNL1        0.0750
     40 N         143.5853  139.1495  159.0641 N.3     1  UNL1       -0.2702
     41 C         144.0376  140.4682  158.5106 C.3     1  UNL1        0.0897
     42 C         142.6811  138.2671  158.2555 C.3     1  UNL1        0.0897
@<TRIPOS>BOND
     1    34    35    1
     2    35    28    1
     3    28    29   ar
     4    29    30   ar
     5    30    25    1
     6    25    26    1
     7    25    38    1
     8    38    39    1
     9    39    40    1
    10    40    41    1
    11    40    42    1
    12    25     1    1
    13     1     2    1
    14     2     3   ar
    15     3     4   ar
    16     4     5   ar
    17     5     6   ar
    18     6    12    1
    19    12    13    3
    20     6     7   ar
    21     7     8   ar
    22     8     9   ar
    23     9    10   ar
    24    10    11   ar
    25    11    14    1
    26    14    15    1
    27     1    16    1
    28    16    17   ar
    29    17    18   ar
    30    18    19   ar
    31    19    20   ar
    32    20    21   ar
    33    21    22    1
    34    22    23    1
    35    23    24    1
    36    30    31   ar
    37    31    32   ar
    38    32    36    1
    39    36    37    1
    40    32    33   ar
    41    33    28   ar
    42    11     2   ar
    43    21    16   ar
    44     9     4   ar
    45    24    20    1
    46    26    27    1
@<TRIPOS>MOLECULE
*****
 42 46 0 0 0
SMALL
GASTEIGER

@<TRIPOS>ATOM
      1 C         141.3364  140.9062  162.4461 C.3     1  UNL1        0.0807
      2 C         141.3476  140.7096  163.9332 C.ar    1  UNL1        0.0375
      3 C         141.0038  141.8513  164.8433 C.ar    1  UNL1        0.0023
      4 C         141.0149  141.6547  166.3303 C.ar    1  UNL1        0.0183
      5 C         140.6711  142.7964  167.2404 C.ar    1  UNL1        0.0118
      6 C         140.6822  142.5997  168.7274 C.ar    1  UNL1        0.0685
      7 C         141.0372  141.2614  169.3043 C.ar    1  UNL1        0.0118
      8 C         141.3811  140.1197  168.3942 C.ar    1  UNL1        0.0199
      9 C         141.3699  140.3163  166.9073 C.ar    1  UNL1        0.0844
     10 N         141.7137  139.1746  165.9971 N.ar    1  UNL1       -0.2119
     11 C         141.7026  139.3712  164.5101 C.ar    1  UNL1        0.2211
     12 C         140.3384  143.7415  169.6375 C.1     1  UNL1        0.1004
     13 N         139.9945  144.8831  170.5476 N.1     1  UNL1       -0.1908
     14 O         142.0464  138.2295  163.6000 O.3     1  UNL1       -0.4563
     15 C         141.0336  137.1574  163.3261 C.3     1  UNL1        0.2542
     16 C         140.1759  140.4140  161.6332 C.ar    1  UNL1        0.0215
     17 C         138.7740  140.7517  162.0463 C.ar    1  UNL1       -0.0007
     18 C         137.6134  140.2595  161.2334 C.ar    1  UNL1        0.0030
     19 C         137.8547  139.4296  160.0074 C.ar    1  UNL1        0.0402
     20 C         139.2567  139.0919  159.5944 C.ar    1  UNL1        0.1761
     21 C         140.4172  139.5840  160.4073 C.ar    1  UNL1        0.1728
     22 O         141.6781  139.0950  159.7585 O.3     1  UNL1       -0.4349
     23 C         141.2969  138.3006  158.5446 C.3     1  UNL1        0.4294
     24 O         139.8003  138.2986  158.4432 O.3     1  UNL1       -0.4346
     25 C         142.4859  141.5949  161.7721 C.3     1  UNL1        0.1162
     26 O         143.3892  140.4593  162.1520 O.3     1  UNL1       -0.3820
     27 H         144.2847  140.6345  161.8229 H       1  UNL1        0.2107
     28 C         139.9839  144.6603  162.0779 C.ar    1  UNL1        0.2272
     29 C         140.8873  143.5247  162.4578 C.ar    1  UNL1        0.0559
     30 C         141.5825  142.7306  161.3921 C.ar    1  UNL1        0.0117
     31 C         141.3744  143.0720  159.9464 C.ar    1  UNL1        0.0559
     32 C         140.4711  144.2076  159.5665 C.ar    1  UNL1        0.2272
     33 N         139.7758  145.0018  160.6322 N.ar    1  UNL1       -0.1767
     34 C         139.0296  144.8407  164.4876 C.3     1  UNL1        0.2542
     35 O         139.2886  145.4545  163.1437 O.3     1  UNL1       -0.4561
     36 O         140.2630  144.5490  158.1207 O.3     1  UNL1       -0.4561
     37 C         140.5345  145.9410  157.6322 C.3     1  UNL1        0.2542
     38 C         143.6353  142.2837  161.0980 C.3     1  UNL1        0.0491
     39 C         144.6011  143.0974  161.9073 C.3     1  UNL1        0.0750
     40 N         144.8040  142.7923  163.3619 N.3     1  UNL1       -0.2702
     41 C         145.7490  141.7032  163.7752 C.3     1  UNL1        0.0897
     42 C         144.0618  143.5763  164.4033 C.3     1  UNL1        0.0897
@<TRIPOS>BOND
     1    34    35    1
     2    35    28    1
     3    28    29   ar
     4    29    30   ar
     5    30    25    1
     6    25    26    1
     7    25    38    1
     8    38    39    1
     9    39    40    1
    10    40    41    1
    11    40    42    1
    12    25     1    1
    13     1     2    1
    14     2     3   ar
    15     3     4   ar
    16     4     5   ar
    17     5     6   ar
    18     6    12    1
    19    12    13    3
    20     6     7   ar
    21     7     8   ar
    22     8     9   ar
    23     9    10   ar
    24    10    11   ar
    25    11    14    1
    26    14    15    1
    27     1    16    1
    28    16    17   ar
    29    17    18   ar
    30    18    19   ar
    31    19    20   ar
    32    20    21   ar
    33    21    22    1
    34    22    23    1
    35    23    24    1
    36    30    31   ar
    37    31    32   ar
    38    32    36    1
    39    36    37    1
    40    32    33   ar
    41    33    28   ar
    42    11     2   ar
    43    21    16   ar
    44     9     4   ar
    45    24    20    1
    46    26    27    1
@<TRIPOS>MOLECULE
*****
 42 46 0 0 0
SMALL
GASTEIGER

@<TRIPOS>ATOM
      1 C         140.5416  140.6889  162.9317 C.3     1  UNL1        0.0807
      2 C         140.3503  140.5782  164.4153 C.ar    1  UNL1        0.0375
      3 C         141.1545  141.4413  165.3417 C.ar    1  UNL1        0.0023
      4 C         140.9632  141.3306  166.8254 C.ar    1  UNL1        0.0183
      5 C         141.7674  142.1937  167.7518 C.ar    1  UNL1        0.0118
      6 C         141.5761  142.0830  169.2354 C.ar    1  UNL1        0.0685
      7 C         140.5805  141.1091  169.7926 C.ar    1  UNL1        0.0118
      8 C         139.7763  140.2460  168.8662 C.ar    1  UNL1        0.0199
      9 C         139.9676  140.3567  167.3826 C.ar    1  UNL1        0.0844
     10 N         139.1634  139.4936  166.4561 N.ar    1  UNL1       -0.2119
     11 C         139.3547  139.6044  164.9725 C.ar    1  UNL1        0.2211
     12 C         142.3803  142.9461  170.1618 C.1     1  UNL1        0.1004
     13 N         143.1846  143.8091  171.0883 N.1     1  UNL1       -0.1908
     14 O         138.5505  138.7412  164.0461 O.3     1  UNL1       -0.4563
     15 C         139.0868  137.4116  163.6049 C.3     1  UNL1        0.2542
     16 C         141.4706  139.7484  162.2230 C.ar    1  UNL1        0.0215
     17 C         142.7720  139.3586  162.8589 C.ar    1  UNL1       -0.0007
     18 C         143.7010  138.4180  162.1502 C.ar    1  UNL1        0.0030
     19 C         143.3287  137.8672  160.8056 C.ar    1  UNL1        0.0402
     20 C         142.0272  138.2570  160.1697 C.ar    1  UNL1        0.1761
     21 C         141.0982  139.1976  160.8784 C.ar    1  UNL1        0.1728
     22 O         139.8921  139.3999  160.0098 O.3     1  UNL1       -0.4349
     23 C         140.0757  138.5843  158.7644 C.3     1  UNL1        0.4294
     24 O         141.3953  137.8780  158.8632 O.3     1  UNL1       -0.4346
     25 C         139.8039  141.7402  162.1567 C.3     1  UNL1        0.1162
     26 O         138.5177  141.0007  162.3779 O.3     1  UNL1       -0.3820
     27 H         137.7907  141.4823  161.9531 H       1  UNL1        0.2107
     28 C         142.9114  143.3939  160.3242 C.ar    1  UNL1        0.2272
     29 C         141.6253  142.6544  160.5453 C.ar    1  UNL1        0.0559
     30 C         141.0900  142.4798  161.9356 C.ar    1  UNL1        0.0117
     31 C         141.8409  143.0447  163.1048 C.ar    1  UNL1        0.0559
     32 C         143.1271  143.7842  162.8836 C.ar    1  UNL1        0.2272
     33 N         143.6623  143.9588  161.4934 N.ar    1  UNL1       -0.1767
     34 C         142.6012  144.2222  157.8813 C.3     1  UNL1        0.2542
     35 O         143.4467  143.5685  158.9338 O.3     1  UNL1       -0.4561
     36 O         143.8779  144.3492  164.0529 O.3     1  UNL1       -0.4561
     37 C         144.3925  143.4359  165.1259 C.3     1  UNL1        0.2542
     38 C         139.0661  142.7916  161.3818 C.3     1  UNL1        0.0491
     39 C         138.2445  143.8176  162.1043 C.3     1  UNL1        0.0750
     40 N         138.9205  144.9129  162.8746 N.3     1  UNL1       -0.2702
     41 C         139.6202  146.0212  162.1452 C.3     1  UNL1        0.0897
     42 C         138.8968  144.8999  164.3743 C.3     1  UNL1        0.0897
@<TRIPOS>BOND
     1    34    35    1
     2    35    28    1
     3    28    29   ar
     4    29    30   ar
     5    30    25    1
     6    25    26    1
     7    25    38    1
     8    38    39    1
     9    39    40    1
    10    40    41    1
    11    40    42    1
    12    25     1    1
    13     1     2    1
    14     2     3   ar
    15     3     4   ar
    16     4     5   ar
    17     5     6   ar
    18     6    12    1
    19    12    13    3
    20     6     7   ar
    21     7     8   ar
    22     8     9   ar
    23     9    10   ar
    24    10    11   ar
    25    11    14    1
    26    14    15    1
    27     1    16    1
    28    16    17   ar
    29    17    18   ar
    30    18    19   ar
    31    19    20   ar
    32    20    21   ar
    33    21    22    1
    34    22    23    1
    35    23    24    1
    36    30    31   ar
    37    31    32   ar
    38    32    36    1
    39    36    37    1
    40    32    33   ar
    41    33    28   ar
    42    11     2   ar
    43    21    16   ar
    44     9     4   ar
    45    24    20    1
    46    26    27    1
@<TRIPOS>MOLECULE
*****
 42 46 0 0 0
SMALL
GASTEIGER

@<TRIPOS>ATOM
      1 C         140.5476  140.6877  162.9369 C.3     1  UNL1        0.0807
      2 C         140.3563  140.5776  164.4207 C.ar    1  UNL1        0.0375
      3 C         141.1603  141.4414  165.3467 C.ar    1  UNL1        0.0023
      4 C         140.9690  141.3312  166.8304 C.ar    1  UNL1        0.0183
      5 C         141.7729  142.1950  167.7564 C.ar    1  UNL1        0.0118
      6 C         141.5817  142.0848  169.2400 C.ar    1  UNL1        0.0685
      7 C         140.5865  141.1108  169.7977 C.ar    1  UNL1        0.0118
      8 C         139.7826  140.2470  168.8717 C.ar    1  UNL1        0.0199
      9 C         139.9738  140.3572  167.3880 C.ar    1  UNL1        0.0844
     10 N         139.1699  139.4934  166.4619 N.ar    1  UNL1       -0.2119
     11 C         139.3612  139.6036  164.9783 C.ar    1  UNL1        0.2211
     12 C         142.3856  142.9486  170.1661 C.1     1  UNL1        0.1004
     13 N         143.1895  143.8124  171.0922 N.1     1  UNL1       -0.1908
     14 O         138.5572  138.7397  164.0522 O.3     1  UNL1       -0.4563
     15 C         139.0949  137.4111  163.6100 C.3     1  UNL1        0.2542
     16 C         141.4792  139.7491  162.2291 C.ar    1  UNL1        0.0215
     17 C         142.7814  139.3631  162.8656 C.ar    1  UNL1       -0.0007
     18 C         143.7130  138.4244  162.1577 C.ar    1  UNL1        0.0030
     19 C         143.3424  137.8719  160.8134 C.ar    1  UNL1        0.0402
     20 C         142.0401  138.2580  160.1768 C.ar    1  UNL1        0.1761
     21 C         141.1086  139.1966  160.8847 C.ar    1  UNL1        0.1728
     22 O         139.9021  139.3952  160.0158 O.3     1  UNL1       -0.4349
     23 C         140.0881  138.5793  158.7709 C.3     1  UNL1        0.4294
     24 O         141.4095  137.8765  158.8704 O.3     1  UNL1       -0.4346
     25 C         139.8072  141.7365  162.1612 C.3     1  UNL1        0.1162
     26 O         138.5226  140.9950  162.3846 O.3     1  UNL1       -0.3820
     27 H         137.7943  141.4746  161.9598 H       1  UNL1        0.2107
     28 C         143.1293  143.7844  162.8822 C.ar    1  UNL1        0.2272
     29 C         141.8447  143.0429  163.1056 C.ar    1  UNL1        0.0559
     30 C         141.0918  142.4781  161.9377 C.ar    1  UNL1        0.0117
     31 C         141.6235  142.6548  160.5463 C.ar    1  UNL1        0.0559
     32 C         142.9081  143.3964  160.3229 C.ar    1  UNL1        0.2272
     33 N         143.6610  143.9612  161.4908 N.ar    1  UNL1       -0.1767
     34 C         144.3835  143.4378  165.1309 C.3     1  UNL1        0.2542
     35 O         143.8822  144.3492  164.0502 O.3     1  UNL1       -0.4561
     36 O         143.4397  143.5731  158.9314 O.3     1  UNL1       -0.4561
     37 C         142.5967  144.2407  157.8856 C.3     1  UNL1        0.2542
     38 C         139.0668  142.7853  161.3854 C.3     1  UNL1        0.0491
     39 C         138.2470  143.8132  162.1073 C.3     1  UNL1        0.0750
     40 N         138.9248  144.9065  162.8788 N.3     1  UNL1       -0.2702
     41 C         139.6298  146.0122  162.1506 C.3     1  UNL1        0.0897
     42 C         138.8977  144.8941  164.3785 C.3     1  UNL1        0.0897
@<TRIPOS>BOND
     1    34    35    1
     2    35    28    1
     3    28    29   ar
     4    29    30   ar
     5    30    25    1
     6    25    26    1
     7    25    38    1
     8    38    39    1
     9    39    40    1
    10    40    41    1
    11    40    42    1
    12    25     1    1
    13     1     2    1
    14     2     3   ar
    15     3     4   ar
    16     4     5   ar
    17     5     6   ar
    18     6    12    1
    19    12    13    3
    20     6     7   ar
    21     7     8   ar
    22     8     9   ar
    23     9    10   ar
    24    10    11   ar
    25    11    14    1
    26    14    15    1
    27     1    16    1
    28    16    17   ar
    29    17    18   ar
    30    18    19   ar
    31    19    20   ar
    32    20    21   ar
    33    21    22    1
    34    22    23    1
    35    23    24    1
    36    30    31   ar
    37    31    32   ar
    38    32    36    1
    39    36    37    1
    40    32    33   ar
    41    33    28   ar
    42    11     2   ar
    43    21    16   ar
    44     9     4   ar
    45    24    20    1
    46    26    27    1
@<TRIPOS>MOLECULE
*****
 42 46 0 0 0
SMALL
GASTEIGER

@<TRIPOS>ATOM
      1 C         141.9333  140.9632  162.3891 C.3     1  UNL1        0.0807
      2 C         141.7007  140.7204  163.8509 C.ar    1  UNL1        0.0375
      3 C         141.3850  141.8701  164.7612 C.ar    1  UNL1        0.0023
      4 C         141.1524  141.6273  166.2231 C.ar    1  UNL1        0.0183
      5 C         140.8367  142.7770  167.1333 C.ar    1  UNL1        0.0118
      6 C         140.6041  142.5342  168.5951 C.ar    1  UNL1        0.0685
      7 C         140.6871  141.1417  169.1467 C.ar    1  UNL1        0.0118
      8 C         141.0028  139.9921  168.2364 C.ar    1  UNL1        0.0199
      9 C         141.2354  140.2349  166.7746 C.ar    1  UNL1        0.0844
     10 N         141.5511  139.0852  165.8643 N.ar    1  UNL1       -0.2119
     11 C         141.7837  139.3280  164.4025 C.ar    1  UNL1        0.2211
     12 C         140.2884  143.6839  169.5055 C.1     1  UNL1        0.1004
     13 N         139.9728  144.8335  170.4158 N.1     1  UNL1       -0.1908
     14 O         142.0994  138.1783  163.4921 O.3     1  UNL1       -0.4563
     15 C         141.0783  137.1047  163.2581 C.3     1  UNL1        0.2542
     16 C         141.1980  140.1480  161.3671 C.ar    1  UNL1        0.0215
     17 C         141.9598  139.4139  160.3037 C.ar    1  UNL1       -0.0007
     18 C         141.2244  138.5986  159.2817 C.ar    1  UNL1        0.0030
     19 C         139.7272  138.5174  159.3230 C.ar    1  UNL1        0.0402
     20 C         138.9654  139.2515  160.3864 C.ar    1  UNL1        0.1761
     21 C         139.7007  140.0667  161.4084 C.ar    1  UNL1        0.1728
     22 O         138.6875  140.6771  162.3308 O.3     1  UNL1       -0.4349
     23 C         137.3260  140.2391  161.8789 C.3     1  UNL1        0.4294
     24 O         137.4977  139.3579  160.6771 O.3     1  UNL1       -0.4346
     25 C         142.9014  142.0213  161.9493 C.3     1  UNL1        0.1162
     26 O         144.0208  141.2709  162.6080 O.3     1  UNL1       -0.3820
     27 H         144.8523  141.7542  162.4819 H       1  UNL1        0.2107
     28 C         140.6511  143.6963  159.1420 C.ar    1  UNL1        0.2272
     29 C         141.7705  142.9459  159.8008 C.ar    1  UNL1        0.0559
     30 C         141.7820  142.7716  161.2905 C.ar    1  UNL1        0.0117
     31 C         140.6741  143.3477  162.1216 C.ar    1  UNL1        0.0559
     32 C         139.5547  144.0980  161.4628 C.ar    1  UNL1        0.2272
     33 N         139.5432  144.2723  159.9731 N.ar    1  UNL1       -0.1767
     34 C         139.3369  143.8851  156.9088 C.3     1  UNL1        0.2542
     35 O         140.6397  143.8706  157.6522 O.3     1  UNL1       -0.4561
     36 O         138.4468  144.6741  162.2939 O.3     1  UNL1       -0.4561
     37 C         138.5263  144.6203  163.7909 C.3     1  UNL1        0.2542
     38 C         143.8694  143.0793  161.5095 C.3     1  UNL1        0.0491
     39 C         144.6655  143.8382  162.5294 C.3     1  UNL1        0.0750
     40 N         144.0478  144.1952  163.8489 N.3     1  UNL1       -0.2702
     41 C         142.9563  145.2221  163.9127 C.3     1  UNL1        0.0897
     42 C         144.5216  143.5253  165.1046 C.3     1  UNL1        0.0897
@<TRIPOS>BOND
     1    34    35    1
     2    35    28    1
     3    28    29   ar
     4    29    30   ar
     5    30    25    1
     6    25    26    1
     7    25    38    1
     8    38    39    1
     9    39    40    1
    10    40    41    1
    11    40    42    1
    12    25     1    1
    13     1     2    1
    14     2     3   ar
    15     3     4   ar
    16     4     5   ar
    17     5     6   ar
    18     6    12    1
    19    12    13    3
    20     6     7   ar
    21     7     8   ar
    22     8     9   ar
    23     9    10   ar
    24    10    11   ar
    25    11    14    1
    26    14    15    1
    27     1    16    1
    28    16    17   ar
    29    17    18   ar
    30    18    19   ar
    31    19    20   ar
    32    20    21   ar
    33    21    22    1
    34    22    23    1
    35    23    24    1
    36    30    31   ar
    37    31    32   ar
    38    32    36    1
    39    36    37    1
    40    32    33   ar
    41    33    28   ar
    42    11     2   ar
    43    21    16   ar
    44     9     4   ar
    45    24    20    1
    46    26    27    1
