@<TRIPOS>MOLECULE
*****
 34 37 0 0 0
SMALL
GASTEIGER

@<TRIPOS>ATOM
      1 N         138.0832  141.2718  163.6960 N.3     1  UNL1       -0.2687
      2 C         138.0625  141.5190  162.2167 C.3     1  UNL1        0.0737
      3 C         138.2085  142.9149  161.6874 C.3     1  UNL1        0.0359
      4 C         138.3754  144.0635  162.6375 C.3     1  UNL1        0.0900
      5 C         138.3961  143.8163  164.1168 C.3     1  UNL1        0.1911
      6 F         138.5630  144.9651  165.0669 F       1  UNL1       -0.2343
      7 C         138.2500  142.4204  164.6461 C.3     1  UNL1        0.1092
      8 N         138.5215  145.4595  162.1082 N.3     1  UNL1       -0.2925
      9 H         137.8937  146.0489  162.6549 H       1  UNL1        0.1236
     10 C         139.8636  146.1292  162.1196 C.3     1  UNL1        0.0972
     11 C         141.1148  145.3022  162.0959 C.ar    1  UNL1        0.0135
     12 C         141.5620  144.6551  160.8187 C.ar    1  UNL1        0.0955
     13 N         142.8132  143.8280  160.7951 N.ar    1  UNL1       -0.2477
     14 C         143.6171  143.6480  162.0486 C.ar    1  UNL1        0.0689
     15 C         144.8682  142.8210  162.0249 C.3     1  UNL1        0.0528
     16 C         143.1698  144.2951  163.3258 C.ar    1  UNL1        0.0817
     17 C         141.9186  145.1222  163.3495 C.ar    1  UNL1        0.0101
     18 C         143.9737  144.1151  164.5793 C.1     1  UNL1        0.1016
     19 N         144.7776  143.9351  165.8329 N.1     1  UNL1       -0.1908
     20 C         137.9371  139.8758  164.2253 C.3     1  UNL1        0.0970
     21 C         138.5015  139.5202  165.5687 C.3     1  UNL1        0.1264
     22 C         140.8385  142.1174  168.4047 C.ar    1  UNL1        0.1593
     23 C         142.3153  141.9109  168.5669 C.ar    1  UNL1        0.1357
     24 N         143.0131  140.8385  167.7839 N.ar    1  UNL1       -0.2392
     25 C         142.2342  139.9728  166.8386 C.ar    1  UNL1        0.0975
     26 C         142.9320  138.9005  166.0555 C.ar    1  UNL1        0.0255
     27 C         142.1530  138.0348  165.1102 C.ar    1  UNL1        0.0623
     28 C         140.6761  138.2413  164.9479 C.ar    1  UNL1        0.2611
     29 O         139.8972  137.3756  164.0026 O.2     1  UNL1       -0.2670
     30 N         139.9783  139.3136  165.7310 N.ar    1  UNL1       -0.2926
     31 C         140.7574  140.1794  166.6763 C.ar    1  UNL1        0.0832
     32 C         140.0596  141.2517  167.4594 C.ar    1  UNL1        0.0573
     33 C         139.8672  142.9935  170.6495 C.3     1  UNL1        0.2525
     34 O         140.1407  143.1898  169.1877 O.3     1  UNL1       -0.4698
@<TRIPOS>BOND
     1    33    34    1
     2    34    22    1
     3    22    23   ar
     4    23    24   ar
     5    24    25   ar
     6    25    26   ar
     7    26    27   ar
     8    27    28   ar
     9    28    29    2
    10    28    30   ar
    11    30    21    1
    12    21    20    1
    13    20     1    1
    14     1     2    1
    15     2     3    1
    16     3     4    1
    17     4     8    1
    18     8    10    1
    19    10    11    1
    20    11    12   ar
    21    12    13   ar
    22    13    14   ar
    23    14    15    1
    24    14    16   ar
    25    16    18    1
    26    18    19    3
    27    16    17   ar
    28     4     5    1
    29     5     6    1
    30     5     7    1
    31    30    31   ar
    32    31    32   ar
    33    32    22   ar
    34    31    25   ar
    35     7     1    1
    36    17    11   ar
    37     8     9    1
@<TRIPOS>MOLECULE
*****
 34 37 0 0 0
SMALL
GASTEIGER

@<TRIPOS>ATOM
      1 N         142.6711  144.1867  163.4241 N.3     1  UNL1       -0.2687
      2 C         142.5795  143.5324  162.0775 C.3     1  UNL1        0.0737
      3 C         141.2384  143.2909  161.4506 C.3     1  UNL1        0.0359
      4 C         139.9889  143.7037  162.1704 C.3     1  UNL1        0.0900
      5 C         140.0805  144.3580  163.5171 C.3     1  UNL1        0.1911
      6 F         138.8308  144.7709  164.2369 F       1  UNL1       -0.2343
      7 C         141.4216  144.5995  164.1439 C.3     1  UNL1        0.1092
      8 N         138.6476  143.4622  161.5436 N.3     1  UNL1       -0.2925
      9 H         138.8182  143.2173  160.5682 H       1  UNL1        0.1236
     10 C         137.7377  142.4084  162.1018 C.3     1  UNL1        0.0972
     11 C         138.3140  141.1541  162.6887 C.ar    1  UNL1        0.0135
     12 C         139.2724  140.3230  161.8883 C.ar    1  UNL1        0.0955
     13 N         139.8487  139.0687  162.4752 N.ar    1  UNL1       -0.2477
     14 C         139.4666  138.6454  163.8627 C.ar    1  UNL1        0.0689
     15 C         140.0429  137.3911  164.4496 C.3     1  UNL1        0.0528
     16 C         138.5082  139.4765  164.6631 C.ar    1  UNL1        0.0817
     17 C         137.9319  140.7309  164.0761 C.ar    1  UNL1        0.0101
     18 C         138.1261  139.0533  166.0505 C.1     1  UNL1        0.1016
     19 N         137.7440  138.6301  167.4379 N.1     1  UNL1       -0.1908
     20 C         144.0124  144.4282  164.0510 C.3     1  UNL1        0.0970
     21 C         144.5113  143.5140  165.1304 C.3     1  UNL1        0.1264
     22 C         141.3277  141.7315  167.7644 C.ar    1  UNL1        0.1593
     23 C         141.0349  140.2620  167.6972 C.ar    1  UNL1        0.1357
     24 N         141.8032  139.3865  166.7521 N.ar    1  UNL1       -0.2392
     25 C         142.8644  139.9806  165.8741 C.ar    1  UNL1        0.0975
     26 C         143.6327  139.1052  164.9290 C.ar    1  UNL1        0.0255
     27 C         144.6939  139.6993  164.0511 C.ar    1  UNL1        0.0623
     28 C         144.9868  141.1689  164.1182 C.ar    1  UNL1        0.2611
     29 O         146.0480  141.7631  163.2402 O.2     1  UNL1       -0.2670
     30 N         144.2185  142.0444  165.0633 N.ar    1  UNL1       -0.2926
     31 C         143.1572  141.4502  165.9413 C.ar    1  UNL1        0.0832
     32 C         142.3889  142.3257  166.8864 C.ar    1  UNL1        0.0573
     33 C         141.2619  143.2695  169.8573 C.3     1  UNL1        0.2525
     34 O         140.5594  142.6070  168.7095 O.3     1  UNL1       -0.4698
@<TRIPOS>BOND
     1    33    34    1
     2    34    22    1
     3    22    23   ar
     4    23    24   ar
     5    24    25   ar
     6    25    26   ar
     7    26    27   ar
     8    27    28   ar
     9    28    29    2
    10    28    30   ar
    11    30    21    1
    12    21    20    1
    13    20     1    1
    14     1     2    1
    15     2     3    1
    16     3     4    1
    17     4     8    1
    18     8    10    1
    19    10    11    1
    20    11    12   ar
    21    12    13   ar
    22    13    14   ar
    23    14    15    1
    24    14    16   ar
    25    16    18    1
    26    18    19    3
    27    16    17   ar
    28     4     5    1
    29     5     6    1
    30     5     7    1
    31    30    31   ar
    32    31    32   ar
    33    32    22   ar
    34    31    25   ar
    35     7     1    1
    36    17    11   ar
    37     8     9    1
@<TRIPOS>MOLECULE
*****
 34 37 0 0 0
SMALL
GASTEIGER

@<TRIPOS>ATOM
      1 N         140.9840  144.5655  162.9814 N.3     1  UNL1       -0.2687
      2 C         141.3196  144.0351  161.6190 C.3     1  UNL1        0.0737
      3 C         142.6974  143.5144  161.3354 C.3     1  UNL1        0.0359
      4 C         143.7395  143.5241  162.4141 C.3     1  UNL1        0.0900
      5 C         143.4039  144.0545  163.7765 C.3     1  UNL1        0.1911
      6 F         144.4462  144.0642  164.8552 F       1  UNL1       -0.2343
      7 C         142.0261  144.5752  164.0601 C.3     1  UNL1        0.1092
      8 N         145.1174  143.0034  162.1305 N.3     1  UNL1       -0.2925
      9 H         145.7725  143.7267  162.4274 H       1  UNL1        0.1236
     10 C         145.5774  141.7197  162.7555 C.3     1  UNL1        0.0972
     11 C         144.5721  140.6962  163.1931 C.ar    1  UNL1        0.0135
     12 C         143.6754  140.0454  162.1820 C.ar    1  UNL1        0.0955
     13 N         142.6700  139.0219  162.6196 N.ar    1  UNL1       -0.2477
     14 C         142.5613  138.6490  164.0685 C.ar    1  UNL1        0.0689
     15 C         141.5560  137.6255  164.5062 C.3     1  UNL1        0.0528
     16 C         143.4580  139.2997  165.0797 C.ar    1  UNL1        0.0817
     17 C         144.4634  140.3233  164.6420 C.ar    1  UNL1        0.0101
     18 C         143.3494  138.9269  166.5285 C.1     1  UNL1        0.1016
     19 N         143.2407  138.5541  167.9774 N.1     1  UNL1       -0.1908
     20 C         139.6061  145.0862  163.2650 C.3     1  UNL1        0.0970
     21 C         138.7743  144.4582  164.3438 C.3     1  UNL1        0.1264
     22 C         140.6020  142.3388  167.8676 C.ar    1  UNL1        0.1593
     23 C         140.5137  140.8451  167.9727 C.ar    1  UNL1        0.1357
     24 N         139.8160  140.0579  166.9033 N.ar    1  UNL1       -0.2392
     25 C         139.2068  140.7644  165.7287 C.ar    1  UNL1        0.0975
     26 C         138.5092  139.9772  164.6593 C.ar    1  UNL1        0.0255
     27 C         137.8999  140.6836  163.4848 C.ar    1  UNL1        0.0623
     28 C         137.9883  142.1774  163.3795 C.ar    1  UNL1        0.2611
     29 O         137.3791  142.8838  162.2050 O.2     1  UNL1       -0.2670
     30 N         138.6859  142.9646  164.4490 N.ar    1  UNL1       -0.2926
     31 C         139.2952  142.2580  165.6236 C.ar    1  UNL1        0.0832
     32 C         139.9928  143.0452  166.6930 C.ar    1  UNL1        0.0573
     33 C         140.4986  143.8686  169.9649 C.3     1  UNL1        0.2525
     34 O         141.2997  143.1259  168.9370 O.3     1  UNL1       -0.4698
@<TRIPOS>BOND
     1    33    34    1
     2    34    22    1
     3    22    23   ar
     4    23    24   ar
     5    24    25   ar
     6    25    26   ar
     7    26    27   ar
     8    27    28   ar
     9    28    29    2
    10    28    30   ar
    11    30    21    1
    12    21    20    1
    13    20     1    1
    14     1     2    1
    15     2     3    1
    16     3     4    1
    17     4     8    1
    18     8    10    1
    19    10    11    1
    20    11    12   ar
    21    12    13   ar
    22    13    14   ar
    23    14    15    1
    24    14    16   ar
    25    16    18    1
    26    18    19    3
    27    16    17   ar
    28     4     5    1
    29     5     6    1
    30     5     7    1
    31    30    31   ar
    32    31    32   ar
    33    32    22   ar
    34    31    25   ar
    35     7     1    1
    36    17    11   ar
    37     8     9    1
@<TRIPOS>MOLECULE
*****
 34 37 0 0 0
SMALL
GASTEIGER

@<TRIPOS>ATOM
      1 N         142.7266  144.0665  162.6595 N.3     1  UNL1       -0.2687
      2 C         142.1147  143.5107  161.4078 C.3     1  UNL1        0.0737
      3 C         140.6250  143.5216  161.2325 C.3     1  UNL1        0.0359
      4 C         139.7473  144.0881  162.3089 C.3     1  UNL1        0.0900
      5 C         140.3593  144.6439  163.5605 C.3     1  UNL1        0.1911
      6 F         139.4815  145.2104  164.6369 F       1  UNL1       -0.2343
      7 C         141.8489  144.6330  163.7359 C.3     1  UNL1        0.1092
      8 N         138.2576  144.0990  162.1336 N.3     1  UNL1       -0.2925
      9 H         138.0706  143.7794  161.1832 H       1  UNL1        0.1236
     10 C         137.3894  143.2819  163.0438 C.3     1  UNL1        0.0972
     11 C         137.8320  141.9151  163.4750 C.ar    1  UNL1        0.0135
     12 C         137.7602  140.7656  162.5141 C.ar    1  UNL1        0.0955
     13 N         138.2028  139.3988  162.9453 N.ar    1  UNL1       -0.2477
     14 C         138.7173  139.1815  164.3375 C.ar    1  UNL1        0.0689
     15 C         139.1599  137.8147  164.7687 C.3     1  UNL1        0.0528
     16 C         138.7891  140.3310  165.2984 C.ar    1  UNL1        0.0817
     17 C         138.3465  141.6979  164.8672 C.ar    1  UNL1        0.0101
     18 C         139.3036  140.1138  166.6905 C.1     1  UNL1        0.1016
     19 N         139.8181  139.8966  168.0828 N.1     1  UNL1       -0.1908
     20 C         144.2164  144.0556  162.8348 C.3     1  UNL1        0.0970
     21 C         144.9143  142.7921  163.2428 C.3     1  UNL1        0.1264
     22 C         143.7495  139.1775  160.8289 C.ar    1  UNL1        0.1593
     23 C         142.9735  138.0656  161.4702 C.ar    1  UNL1        0.1357
     24 N         142.5858  138.1585  162.9163 N.ar    1  UNL1       -0.2392
     25 C         142.9740  139.3634  163.7209 C.ar    1  UNL1        0.0975
     26 C         142.5863  139.4563  165.1670 C.ar    1  UNL1        0.0255
     27 C         142.9746  140.6611  165.9716 C.ar    1  UNL1        0.0623
     28 C         143.7506  141.7732  165.3302 C.ar    1  UNL1        0.2611
     29 O         144.1389  142.9780  166.1349 O.2     1  UNL1       -0.2670
     30 N         144.1383  141.6802  163.8842 N.ar    1  UNL1       -0.2926
     31 C         143.7500  140.4753  163.0795 C.ar    1  UNL1        0.0832
     32 C         144.1377  140.3823  161.6335 C.ar    1  UNL1        0.0573
     33 C         143.8017  140.2043  158.4429 C.3     1  UNL1        0.2525
     34 O         144.1372  139.0845  159.3828 O.3     1  UNL1       -0.4698
@<TRIPOS>BOND
     1    33    34    1
     2    34    22    1
     3    22    23   ar
     4    23    24   ar
     5    24    25   ar
     6    25    26   ar
     7    26    27   ar
     8    27    28   ar
     9    28    29    2
    10    28    30   ar
    11    30    21    1
    12    21    20    1
    13    20     1    1
    14     1     2    1
    15     2     3    1
    16     3     4    1
    17     4     8    1
    18     8    10    1
    19    10    11    1
    20    11    12   ar
    21    12    13   ar
    22    13    14   ar
    23    14    15    1
    24    14    16   ar
    25    16    18    1
    26    18    19    3
    27    16    17   ar
    28     4     5    1
    29     5     6    1
    30     5     7    1
    31    30    31   ar
    32    31    32   ar
    33    32    22   ar
    34    31    25   ar
    35     7     1    1
    36    17    11   ar
    37     8     9    1
@<TRIPOS>MOLECULE
*****
 34 37 0 0 0
SMALL
GASTEIGER

@<TRIPOS>ATOM
      1 N         144.4690  140.2653  163.4155 N.3     1  UNL1       -0.2687
      2 C         144.0044  140.1229  161.9964 C.3     1  UNL1        0.0737
      3 C         142.9498  139.1141  161.6501 C.3     1  UNL1        0.0359
      4 C         142.3598  138.2475  162.7229 C.3     1  UNL1        0.0900
      5 C         142.8244  138.3899  164.1420 C.3     1  UNL1        0.1911
      6 F         142.2344  137.5233  165.2149 F       1  UNL1       -0.2343
      7 C         143.8790  139.3987  164.4883 C.3     1  UNL1        0.1092
      8 N         141.3052  137.2386  162.3767 N.3     1  UNL1       -0.2925
      9 H         141.6743  136.3248  162.6394 H       1  UNL1        0.1236
     10 C         139.9379  137.3443  162.9844 C.3     1  UNL1        0.0972
     11 C         139.3499  138.6925  163.2783 C.ar    1  UNL1        0.0135
     12 C         138.9176  139.0343  164.6734 C.ar    1  UNL1        0.0955
     13 N         138.3296  140.3826  164.9673 N.ar    1  UNL1       -0.2477
     14 C         138.1740  141.3892  163.8661 C.ar    1  UNL1        0.0689
     15 C         137.5860  142.7374  164.1600 C.3     1  UNL1        0.0528
     16 C         138.6063  141.0474  162.4710 C.ar    1  UNL1        0.0817
     17 C         139.1942  139.6990  162.1771 C.ar    1  UNL1        0.0101
     18 C         138.4506  142.0539  161.3698 C.1     1  UNL1        0.1016
     19 N         138.2950  143.0605  160.2686 N.1     1  UNL1       -0.1908
     20 C         145.5237  141.2742  163.7618 C.3     1  UNL1        0.0970
     21 C         145.1313  142.5992  164.3451 C.3     1  UNL1        0.1264
     22 C         142.2504  141.9545  167.7413 C.ar    1  UNL1        0.1593
     23 C         140.8343  142.4353  167.6251 C.ar    1  UNL1        0.1357
     24 N         140.3785  143.1310  166.3769 N.ar    1  UNL1       -0.2392
     25 C         141.3388  143.3460  165.2448 C.ar    1  UNL1        0.0975
     26 C         140.8830  144.0417  163.9965 C.ar    1  UNL1        0.0255
     27 C         141.8433  144.2566  162.8644 C.ar    1  UNL1        0.0623
     28 C         143.2594  143.7758  162.9806 C.ar    1  UNL1        0.2611
     29 O         144.2197  143.9907  161.8485 O.2     1  UNL1       -0.2670
     30 N         143.7152  143.0801  164.2289 N.ar    1  UNL1       -0.2926
     31 C         142.7549  142.8651  165.3610 C.ar    1  UNL1        0.0832
     32 C         143.2106  142.1694  166.6093 C.ar    1  UNL1        0.0573
     33 C         142.1999  139.8834  169.3091 C.3     1  UNL1        0.2525
     34 O         142.7062  141.2587  168.9896 O.3     1  UNL1       -0.4698
@<TRIPOS>BOND
     1    33    34    1
     2    34    22    1
     3    22    23   ar
     4    23    24   ar
     5    24    25   ar
     6    25    26   ar
     7    26    27   ar
     8    27    28   ar
     9    28    29    2
    10    28    30   ar
    11    30    21    1
    12    21    20    1
    13    20     1    1
    14     1     2    1
    15     2     3    1
    16     3     4    1
    17     4     8    1
    18     8    10    1
    19    10    11    1
    20    11    12   ar
    21    12    13   ar
    22    13    14   ar
    23    14    15    1
    24    14    16   ar
    25    16    18    1
    26    18    19    3
    27    16    17   ar
    28     4     5    1
    29     5     6    1
    30     5     7    1
    31    30    31   ar
    32    31    32   ar
    33    32    22   ar
    34    31    25   ar
    35     7     1    1
    36    17    11   ar
    37     8     9    1
@<TRIPOS>MOLECULE
*****
 34 37 0 0 0
SMALL
GASTEIGER

@<TRIPOS>ATOM
      1 N         137.9724  142.6948  163.4483 N.3     1  UNL1       -0.2687
      2 C         138.0998  142.2370  162.0256 C.3     1  UNL1        0.0737
      3 C         138.2230  140.7744  161.7166 C.3     1  UNL1        0.0359
      4 C         138.2190  139.7696  162.8303 C.3     1  UNL1        0.0900
      5 C         138.0916  140.2274  164.2530 C.3     1  UNL1        0.1911
      6 F         138.0876  139.2226  165.3667 F       1  UNL1       -0.2343
      7 C         137.9684  141.6900  164.5620 C.3     1  UNL1        0.1092
      8 N         138.3423  138.3069  162.5213 N.3     1  UNL1       -0.2925
      9 H         137.6211  138.0895  161.8335 H       1  UNL1        0.1236
     10 C         139.6316  137.7599  161.9844 C.3     1  UNL1        0.0972
     11 C         140.9386  138.3423  162.4344 C.ar    1  UNL1        0.0135
     12 C         141.7447  139.1902  161.4957 C.ar    1  UNL1        0.0955
     13 N         143.0517  139.7726  161.9457 N.ar    1  UNL1       -0.2477
     14 C         143.5527  139.5070  163.3345 C.ar    1  UNL1        0.0689
     15 C         144.8596  140.0894  163.7845 C.3     1  UNL1        0.0528
     16 C         142.7465  138.6591  164.2732 C.ar    1  UNL1        0.0817
     17 C         141.4395  138.0767  163.8231 C.ar    1  UNL1        0.0101
     18 C         143.2474  138.3935  165.6619 C.1     1  UNL1        0.1016
     19 N         143.7483  138.1280  167.0507 N.1     1  UNL1       -0.1908
     20 C         137.8492  144.1575  163.7573 C.3     1  UNL1        0.0970
     21 C         138.9491  144.8639  164.4930 C.3     1  UNL1        0.1264
     22 C         140.9515  142.1055  167.4309 C.ar    1  UNL1        0.1593
     23 C         142.3787  141.6945  167.2209 C.ar    1  UNL1        0.1357
     24 N         143.1384  142.2029  166.0317 N.ar    1  UNL1       -0.2392
     25 C         142.4710  143.1224  165.0524 C.ar    1  UNL1        0.0975
     26 C         143.2307  143.6308  163.8632 C.ar    1  UNL1        0.0255
     27 C         142.5633  144.5503  162.8839 C.ar    1  UNL1        0.0623
     28 C         141.1360  144.9613  163.0938 C.ar    1  UNL1        0.2611
     29 O         140.4686  145.8808  162.1145 O.2     1  UNL1       -0.2670
     30 N         140.3763  144.4529  164.2830 N.ar    1  UNL1       -0.2926
     31 C         141.0438  143.5334  165.2623 C.ar    1  UNL1        0.0832
     32 C         140.2840  143.0250  166.4516 C.ar    1  UNL1        0.0573
     33 C         139.9015  140.1316  168.7541 C.3     1  UNL1        0.2525
     34 O         140.1917  141.5971  168.6201 O.3     1  UNL1       -0.4698
@<TRIPOS>BOND
     1    33    34    1
     2    34    22    1
     3    22    23   ar
     4    23    24   ar
     5    24    25   ar
     6    25    26   ar
     7    26    27   ar
     8    27    28   ar
     9    28    29    2
    10    28    30   ar
    11    30    21    1
    12    21    20    1
    13    20     1    1
    14     1     2    1
    15     2     3    1
    16     3     4    1
    17     4     8    1
    18     8    10    1
    19    10    11    1
    20    11    12   ar
    21    12    13   ar
    22    13    14   ar
    23    14    15    1
    24    14    16   ar
    25    16    18    1
    26    18    19    3
    27    16    17   ar
    28     4     5    1
    29     5     6    1
    30     5     7    1
    31    30    31   ar
    32    31    32   ar
    33    32    22   ar
    34    31    25   ar
    35     7     1    1
    36    17    11   ar
    37     8     9    1
@<TRIPOS>MOLECULE
*****
 34 37 0 0 0
SMALL
GASTEIGER

@<TRIPOS>ATOM
      1 N         142.9454  141.5793  165.6312 N.3     1  UNL1       -0.2687
      2 C         143.4034  140.1677  165.8491 C.3     1  UNL1        0.0737
      3 C         143.9015  139.3537  164.6919 C.3     1  UNL1        0.0359
      4 C         143.9415  139.9513  163.3167 C.3     1  UNL1        0.0900
      5 C         143.4835  141.3629  163.0987 C.3     1  UNL1        0.1911
      6 F         143.5236  141.9605  161.7234 F       1  UNL1       -0.2343
      7 C         142.9854  142.1769  164.2560 C.3     1  UNL1        0.1092
      8 N         144.4396  139.1372  162.1594 N.3     1  UNL1       -0.2925
      9 H         145.3663  138.7969  162.4159 H       1  UNL1        0.1236
     10 C         143.6570  137.9479  161.6870 C.3     1  UNL1        0.0972
     11 C         142.1576  137.9886  161.6871 C.ar    1  UNL1        0.0135
     12 C         141.3919  137.4172  162.8435 C.ar    1  UNL1        0.0955
     13 N         139.8925  137.4579  162.8435 N.ar    1  UNL1       -0.2477
     14 C         139.1587  138.0700  161.6872 C.ar    1  UNL1        0.0689
     15 C         137.6593  138.1107  161.6873 C.3     1  UNL1        0.0528
     16 C         139.9244  138.6414  160.5308 C.ar    1  UNL1        0.0817
     17 C         141.4239  138.6007  160.5308 C.ar    1  UNL1        0.0101
     18 C         139.1908  139.2535  159.3746 C.1     1  UNL1        0.1016
     19 N         138.4570  139.8656  158.2182 N.1     1  UNL1       -0.1908
     20 C         142.4473  142.3934  166.7885 C.3     1  UNL1        0.0970
     21 C         140.9731  142.5355  167.0261 C.3     1  UNL1        0.1264
     22 C         138.6400  143.7165  163.3639 C.ar    1  UNL1        0.1593
     23 C         137.6826  142.7455  162.7391 C.ar    1  UNL1        0.1357
     24 N         137.5028  141.3807  163.3351 N.ar    1  UNL1       -0.2392
     25 C         138.2805  140.9870  164.5558 C.ar    1  UNL1        0.0975
     26 C         138.1007  139.6223  165.1518 C.ar    1  UNL1        0.0255
     27 C         138.8784  139.2286  166.3725 C.ar    1  UNL1        0.0623
     28 C         139.8359  140.1997  166.9973 C.ar    1  UNL1        0.2611
     29 O         140.6135  139.8060  168.2180 O.2     1  UNL1       -0.2670
     30 N         140.0156  141.5644  166.4013 N.ar    1  UNL1       -0.2926
     31 C         139.2379  141.9581  165.1806 C.ar    1  UNL1        0.0832
     32 C         139.4177  143.3228  164.5846 C.ar    1  UNL1        0.0573
     33 C         140.1891  145.5569  162.3825 C.3     1  UNL1        0.2525
     34 O         138.8198  145.0812  162.7679 O.3     1  UNL1       -0.4698
@<TRIPOS>BOND
     1    33    34    1
     2    34    22    1
     3    22    23   ar
     4    23    24   ar
     5    24    25   ar
     6    25    26   ar
     7    26    27   ar
     8    27    28   ar
     9    28    29    2
    10    28    30   ar
    11    30    21    1
    12    21    20    1
    13    20     1    1
    14     1     2    1
    15     2     3    1
    16     3     4    1
    17     4     8    1
    18     8    10    1
    19    10    11    1
    20    11    12   ar
    21    12    13   ar
    22    13    14   ar
    23    14    15    1
    24    14    16   ar
    25    16    18    1
    26    18    19    3
    27    16    17   ar
    28     4     5    1
    29     5     6    1
    30     5     7    1
    31    30    31   ar
    32    31    32   ar
    33    32    22   ar
    34    31    25   ar
    35     7     1    1
    36    17    11   ar
    37     8     9    1
@<TRIPOS>MOLECULE
*****
 34 37 0 0 0
SMALL
GASTEIGER

@<TRIPOS>ATOM
      1 N         142.8647  143.3945  161.4254 N.3     1  UNL1       -0.2687
      2 C         143.1961  144.2905  162.5818 C.3     1  UNL1        0.0737
      3 C         142.0958  144.9547  163.3553 C.3     1  UNL1        0.0359
      4 C         140.6642  144.7229  162.9722 C.3     1  UNL1        0.0900
      5 C         140.3329  143.8268  161.8158 C.3     1  UNL1        0.1911
      6 F         138.9012  143.5950  161.4328 F       1  UNL1       -0.2343
      7 C         141.4331  143.1626  161.0424 C.3     1  UNL1        0.1092
      8 N         139.5639  145.3871  163.7457 N.3     1  UNL1       -0.2925
      9 H         138.7527  145.4268  163.1286 H       1  UNL1        0.1236
     10 C         139.0940  144.7942  165.0409 C.3     1  UNL1        0.0972
     11 C         139.0298  143.3045  165.2043 C.ar    1  UNL1        0.0135
     12 C         137.9437  142.5219  164.5277 C.ar    1  UNL1        0.0955
     13 N         137.8795  141.0322  164.6910 N.ar    1  UNL1       -0.2477
     14 C         138.9015  140.3251  165.5311 C.ar    1  UNL1        0.0689
     15 C         138.8373  138.8355  165.6945 C.3     1  UNL1        0.0528
     16 C         139.9876  141.1077  166.2078 C.ar    1  UNL1        0.0817
     17 C         140.0518  142.5975  166.0443 C.ar    1  UNL1        0.0101
     18 C         141.0095  140.4007  167.0478 C.1     1  UNL1        0.1016
     19 N         142.0316  139.6937  167.8879 N.1     1  UNL1       -0.1908
     20 C         143.9651  142.7302  160.6520 C.3     1  UNL1        0.0970
     21 C         144.1181  141.2387  160.6960 C.3     1  UNL1        0.1264
     22 C         140.7040  138.3716  161.3075 C.ar    1  UNL1        0.1593
     23 C         140.5622  137.6412  162.6099 C.ar    1  UNL1        0.1357
     24 N         141.5583  137.8665  163.7085 N.ar    1  UNL1       -0.2392
     25 C         142.6963  138.8222  163.5047 C.ar    1  UNL1        0.0975
     26 C         143.6924  139.0475  164.6033 C.ar    1  UNL1        0.0255
     27 C         144.8304  140.0032  164.3995 C.ar    1  UNL1        0.0623
     28 C         144.9723  140.7336  163.0970 C.ar    1  UNL1        0.2611
     29 O         146.1103  141.6893  162.8932 O.2     1  UNL1       -0.2670
     30 N         143.9762  140.5083  161.9984 N.ar    1  UNL1       -0.2926
     31 C         142.8382  139.5526  162.2023 C.ar    1  UNL1        0.0832
     32 C         141.8420  139.3273  161.1037 C.ar    1  UNL1        0.0573
     33 C         139.8578  138.8659  158.9014 C.3     1  UNL1        0.2525
     34 O         139.7079  138.1463  160.2089 O.3     1  UNL1       -0.4698
@<TRIPOS>BOND
     1    33    34    1
     2    34    22    1
     3    22    23   ar
     4    23    24   ar
     5    24    25   ar
     6    25    26   ar
     7    26    27   ar
     8    27    28   ar
     9    28    29    2
    10    28    30   ar
    11    30    21    1
    12    21    20    1
    13    20     1    1
    14     1     2    1
    15     2     3    1
    16     3     4    1
    17     4     8    1
    18     8    10    1
    19    10    11    1
    20    11    12   ar
    21    12    13   ar
    22    13    14   ar
    23    14    15    1
    24    14    16   ar
    25    16    18    1
    26    18    19    3
    27    16    17   ar
    28     4     5    1
    29     5     6    1
    30     5     7    1
    31    30    31   ar
    32    31    32   ar
    33    32    22   ar
    34    31    25   ar
    35     7     1    1
    36    17    11   ar
    37     8     9    1
@<TRIPOS>MOLECULE
*****
 34 37 0 0 0
SMALL
GASTEIGER

@<TRIPOS>ATOM
      1 N         143.0800  140.3216  160.3941 N.3     1  UNL1       -0.2687
      2 C         144.0077  139.3263  161.0257 C.3     1  UNL1        0.0737
      3 C         143.4536  138.2045  161.8530 C.3     1  UNL1        0.0359
      4 C         141.9719  138.0779  162.0486 C.3     1  UNL1        0.0900
      5 C         141.0442  139.0731  161.4170 C.3     1  UNL1        0.1911
      6 F         139.5624  138.9464  161.6126 F       1  UNL1       -0.2343
      7 C         141.5983  140.1949  160.5897 C.3     1  UNL1        0.1092
      8 N         141.4177  136.9560  162.8759 N.3     1  UNL1       -0.2925
      9 H         142.1680  136.2741  162.9876 H       1  UNL1        0.1236
     10 C         140.8758  137.2321  164.2471 C.3     1  UNL1        0.0972
     11 C         141.3849  138.4039  165.0328 C.ar    1  UNL1        0.0135
     12 C         142.6692  138.2918  165.7997 C.ar    1  UNL1        0.0955
     13 N         143.1783  139.4637  166.5855 N.ar    1  UNL1       -0.2477
     14 C         142.4031  140.7478  166.6044 C.ar    1  UNL1        0.0689
     15 C         142.9123  141.9196  167.3901 C.3     1  UNL1        0.0528
     16 C         141.1189  140.8599  165.8375 C.ar    1  UNL1        0.0817
     17 C         140.6098  139.6879  165.0517 C.ar    1  UNL1        0.0101
     18 C         140.3437  142.1439  165.8564 C.1     1  UNL1        0.1016
     19 N         139.5686  143.4280  165.8753 N.1     1  UNL1       -0.1908
     20 C         143.6342  141.4434  159.5667 C.3     1  UNL1        0.0970
     21 C         144.3522  142.5810  160.2304 C.3     1  UNL1        0.1264
     22 C         140.7185  145.1981  160.6737 C.ar    1  UNL1        0.1593
     23 C         140.2908  145.6634  162.0340 C.ar    1  UNL1        0.1357
     24 N         141.0743  145.2563  163.2466 N.ar    1  UNL1       -0.2392
     25 C         142.2855  144.3840  163.0989 C.ar    1  UNL1        0.0975
     26 C         143.0690  143.9769  164.3115 C.ar    1  UNL1        0.0255
     27 C         144.2802  143.1045  164.1637 C.ar    1  UNL1        0.0623
     28 C         144.7080  142.6392  162.8034 C.ar    1  UNL1        0.2611
     29 O         145.9192  141.7668  162.6556 O.2     1  UNL1       -0.2670
     30 N         143.9245  143.0463  161.5908 N.ar    1  UNL1       -0.2926
     31 C         142.7132  143.9187  161.7385 C.ar    1  UNL1        0.0832
     32 C         141.9297  144.3258  160.5259 C.ar    1  UNL1        0.0573
     33 C         140.5964  145.6326  158.1151 C.3     1  UNL1        0.2525
     34 O         139.9350  145.6052  159.4611 O.3     1  UNL1       -0.4698
@<TRIPOS>BOND
     1    33    34    1
     2    34    22    1
     3    22    23   ar
     4    23    24   ar
     5    24    25   ar
     6    25    26   ar
     7    26    27   ar
     8    27    28   ar
     9    28    29    2
    10    28    30   ar
    11    30    21    1
    12    21    20    1
    13    20     1    1
    14     1     2    1
    15     2     3    1
    16     3     4    1
    17     4     8    1
    18     8    10    1
    19    10    11    1
    20    11    12   ar
    21    12    13   ar
    22    13    14   ar
    23    14    15    1
    24    14    16   ar
    25    16    18    1
    26    18    19    3
    27    16    17   ar
    28     4     5    1
    29     5     6    1
    30     5     7    1
    31    30    31   ar
    32    31    32   ar
    33    32    22   ar
    34    31    25   ar
    35     7     1    1
    36    17    11   ar
    37     8     9    1
