@<TRIPOS>MOLECULE
*****
 32 34 0 0 0
SMALL
GASTEIGER

@<TRIPOS>ATOM
      1 N         142.9702  140.8291  165.3150 N.pl3   1  UNL1       -0.3037
      2 C         142.4615  141.1153  166.6968 C.ar    1  UNL1        0.0490
      3 C         143.1997  142.0731  167.5843 C.ar    1  UNL1        0.0153
      4 C         142.6910  142.3593  168.9660 C.ar    1  UNL1        0.0124
      5 C         141.4442  141.6877  169.4604 C.ar    1  UNL1        0.0791
      6 C         140.7060  140.7299  168.5729 C.ar    1  UNL1        0.0685
      7 CL        139.4592  140.0583  169.0672 Cl      1  UNL1       -0.0815
      8 C         141.2147  140.4436  167.1911 C.ar    1  UNL1        0.0266
      9 C         140.9356  141.9740  170.8421 C.1     1  UNL1        0.1013
     10 N         140.4269  142.2602  172.2239 N.1     1  UNL1       -0.1908
     11 N         142.3332  143.6127  162.6860 N.3     1  UNL1       -0.1577
     12 C         143.8322  143.6039  162.7414 C.3     1  UNL1        0.0972
     13 C         144.2532  142.5601  163.7331 C.3     1  UNL1        0.0403
     14 C         143.0145  141.9238  164.2904 C.3     1  UNL1        0.0922
     15 C         141.8278  142.5743  163.6433 C.3     1  UNL1        0.1151
     16 S         141.4880  144.5034  161.8245 S.O2    1  UNL1        0.0421
     17 O         140.4727  144.6035  162.9242 O.2     1  UNL1       -0.1573
     18 O         142.5032  144.4033  160.7248 O.2     1  UNL1       -0.1573
     19 C         139.6528  146.3280  161.5940 C.3     1  UNL1        0.0270
     20 C         140.6427  145.3941  160.9631 C.3     1  UNL1        0.1459
     21 C         140.7874  145.3511  159.4707 C.3     1  UNL1        0.0270
     22 C         143.4346  139.4483  164.9578 C.3     1  UNL1        0.1176
     23 C         143.1630  138.8961  163.5898 C.ar    1  UNL1        0.0015
     24 C         144.2029  139.0104  162.5149 C.ar    1  UNL1       -0.0027
     25 C         143.9314  138.4582  161.1469 C.ar    1  UNL1       -0.0003
     26 C         142.6199  137.7918  160.8538 C.ar    1  UNL1       -0.0001
     27 C         141.5799  137.6775  161.9288 C.ar    1  UNL1        0.0036
     28 C         141.8515  138.2297  163.2967 C.ar    1  UNL1        0.0691
     29 C         140.8116  138.1154  164.3717 C.3     1  UNL1        0.4183
     30 F         139.7717  138.0012  165.4466 F       1  UNL1       -0.1659
     31 F         141.3348  136.7570  164.7335 F       1  UNL1       -0.1659
     32 F         140.2883  139.4738  164.0098 F       1  UNL1       -0.1659
@<TRIPOS>BOND
     1    19    20    1
     2    20    21    1
     3    20    16    1
     4    16    17    2
     5    16    18    2
     6    16    11    1
     7    11    12    1
     8    12    13    1
     9    13    14    1
    10    14     1    1
    11     1    22    1
    12    22    23    1
    13    23    24   ar
    14    24    25   ar
    15    25    26   ar
    16    26    27   ar
    17    27    28   ar
    18    28    29    1
    19    29    30    1
    20    29    31    1
    21    29    32    1
    22     1     2    1
    23     2     3   ar
    24     3     4   ar
    25     4     5   ar
    26     5     9    1
    27     9    10    3
    28     5     6   ar
    29     6     7    1
    30     6     8   ar
    31    14    15    1
    32    15    11    1
    33    28    23   ar
    34     8     2   ar
@<TRIPOS>MOLECULE
*****
 32 34 0 0 0
SMALL
GASTEIGER

@<TRIPOS>ATOM
      1 N         139.4537  142.5307  164.6887 N.pl3   1  UNL1       -0.3037
      2 C         140.4827  142.5343  165.7801 C.ar    1  UNL1        0.0490
      3 C         141.9211  142.2593  165.4556 C.ar    1  UNL1        0.0153
      4 C         142.9501  142.2629  166.5469 C.ar    1  UNL1        0.0124
      5 C         142.5408  142.5414  167.9628 C.ar    1  UNL1        0.0791
      6 C         141.1023  142.8163  168.2874 C.ar    1  UNL1        0.0685
      7 CL        140.6930  143.0948  169.7033 Cl      1  UNL1       -0.0815
      8 C         140.0733  142.8128  167.1961 C.ar    1  UNL1        0.0266
      9 C         143.5698  142.5449  169.0542 C.1     1  UNL1        0.1013
     10 N         144.5989  142.5485  170.1455 N.1     1  UNL1       -0.1908
     11 N         139.9486  144.4092  161.3284 N.3     1  UNL1       -0.1577
     12 C         139.5560  145.5372  162.2359 C.3     1  UNL1        0.0972
     13 C         139.3228  144.9708  163.6052 C.3     1  UNL1        0.0403
     14 C         139.5713  143.4928  163.5438 C.3     1  UNL1        0.0922
     15 C         139.9581  143.1457  162.1367 C.3     1  UNL1        0.1151
     16 S         140.2746  144.5245  159.8688 S.O2    1  UNL1        0.0421
     17 O         139.0956  143.6584  159.5372 O.2     1  UNL1       -0.1573
     18 O         141.4535  145.3906  160.2004 O.2     1  UNL1       -0.1573
     19 C         139.7454  143.9431  157.3925 C.3     1  UNL1        0.0270
     20 C         140.6005  144.6398  158.4092 C.3     1  UNL1        0.1459
     21 C         141.7814  145.4517  157.9663 C.3     1  UNL1        0.0270
     22 C         138.3070  141.5652  164.7422 C.3     1  UNL1        0.1176
     23 C         138.4800  140.1662  164.2293 C.ar    1  UNL1        0.0015
     24 C         138.3578  139.8853  162.7609 C.ar    1  UNL1       -0.0027
     25 C         138.5307  138.4864  162.2480 C.ar    1  UNL1       -0.0003
     26 C         138.8258  137.3684  163.2035 C.ar    1  UNL1       -0.0001
     27 C         138.9480  137.6493  164.6719 C.ar    1  UNL1        0.0036
     28 C         138.7751  139.0482  165.1848 C.ar    1  UNL1        0.0691
     29 C         138.8973  139.3291  166.6532 C.3     1  UNL1        0.4183
     30 F         139.0195  139.6100  168.1215 F       1  UNL1       -0.1659
     31 F         137.4153  139.1577  166.8093 F       1  UNL1       -0.1659
     32 F         140.3792  139.5005  166.4971 F       1  UNL1       -0.1659
@<TRIPOS>BOND
     1    19    20    1
     2    20    21    1
     3    20    16    1
     4    16    17    2
     5    16    18    2
     6    16    11    1
     7    11    12    1
     8    12    13    1
     9    13    14    1
    10    14     1    1
    11     1    22    1
    12    22    23    1
    13    23    24   ar
    14    24    25   ar
    15    25    26   ar
    16    26    27   ar
    17    27    28   ar
    18    28    29    1
    19    29    30    1
    20    29    31    1
    21    29    32    1
    22     1     2    1
    23     2     3   ar
    24     3     4   ar
    25     4     5   ar
    26     5     9    1
    27     9    10    3
    28     5     6   ar
    29     6     7    1
    30     6     8   ar
    31    14    15    1
    32    15    11    1
    33    28    23   ar
    34     8     2   ar
@<TRIPOS>MOLECULE
*****
 32 34 0 0 0
SMALL
GASTEIGER

@<TRIPOS>ATOM
      1 N         142.3212  142.0453  164.5978 N.pl3   1  UNL1       -0.3037
      2 C         141.9499  142.1305  166.0486 C.ar    1  UNL1        0.0490
      3 C         140.5056  142.1533  166.4531 C.ar    1  UNL1        0.0153
      4 C         140.1343  142.2384  167.9039 C.ar    1  UNL1        0.0124
      5 C         141.2072  142.3008  168.9503 C.ar    1  UNL1        0.0791
      6 C         142.6516  142.2779  168.5458 C.ar    1  UNL1        0.0685
      7 CL        143.7245  142.3403  169.5922 Cl      1  UNL1       -0.0815
      8 C         143.0229  142.1928  167.0950 C.ar    1  UNL1        0.0266
      9 C         140.8359  142.3859  170.4011 C.1     1  UNL1        0.1013
     10 N         140.4646  142.4710  171.8519 N.1     1  UNL1       -0.1908
     11 N         141.3883  144.3645  161.6285 N.3     1  UNL1       -0.1577
     12 C         141.2430  145.3053  162.7878 C.3     1  UNL1        0.0972
     13 C         141.5748  144.5510  164.0413 C.3     1  UNL1        0.0403
     14 C         141.9251  143.1441  163.6565 C.3     1  UNL1        0.0922
     15 C         141.8098  143.0289  162.1654 C.3     1  UNL1        0.1151
     16 S         141.1532  144.7005  160.1857 S.O2    1  UNL1        0.0421
     17 O         142.5978  144.4281  159.8870 O.2     1  UNL1       -0.1573
     18 O         139.7087  144.9729  160.4843 O.2     1  UNL1       -0.1573
     19 C         141.8871  145.9167  158.0103 C.3     1  UNL1        0.0270
     20 C         140.9182  145.0364  158.7428 C.3     1  UNL1        0.1459
     21 C         139.7144  144.4922  158.0325 C.3     1  UNL1        0.0270
     22 C         143.0885  140.8615  164.0882 C.3     1  UNL1        0.1176
     23 C         142.3683  139.5899  163.7501 C.ar    1  UNL1        0.0015
     24 C         141.7954  139.3947  162.3776 C.ar    1  UNL1       -0.0027
     25 C         141.0751  138.1231  162.0395 C.ar    1  UNL1       -0.0003
     26 C         140.9278  137.0468  163.0737 C.ar    1  UNL1       -0.0001
     27 C         141.5007  137.2420  164.4463 C.ar    1  UNL1        0.0036
     28 C         142.2210  138.5136  164.7844 C.ar    1  UNL1        0.0691
     29 C         142.7939  138.7088  166.1569 C.3     1  UNL1        0.4183
     30 F         143.3668  138.9041  167.5293 F       1  UNL1       -0.1659
     31 F         141.4345  139.0789  166.6717 F       1  UNL1       -0.1659
     32 F         144.1532  138.3387  165.6421 F       1  UNL1       -0.1659
@<TRIPOS>BOND
     1    19    20    1
     2    20    21    1
     3    20    16    1
     4    16    17    2
     5    16    18    2
     6    16    11    1
     7    11    12    1
     8    12    13    1
     9    13    14    1
    10    14     1    1
    11     1    22    1
    12    22    23    1
    13    23    24   ar
    14    24    25   ar
    15    25    26   ar
    16    26    27   ar
    17    27    28   ar
    18    28    29    1
    19    29    30    1
    20    29    31    1
    21    29    32    1
    22     1     2    1
    23     2     3   ar
    24     3     4   ar
    25     4     5   ar
    26     5     9    1
    27     9    10    3
    28     5     6   ar
    29     6     7    1
    30     6     8   ar
    31    14    15    1
    32    15    11    1
    33    28    23   ar
    34     8     2   ar
@<TRIPOS>MOLECULE
*****
 32 34 0 0 0
SMALL
GASTEIGER

@<TRIPOS>ATOM
      1 N         141.5986  140.4232  165.1957 N.pl3   1  UNL1       -0.3037
      2 C         141.3790  140.7870  166.6343 C.ar    1  UNL1        0.0490
      3 C         140.0569  140.5075  167.2852 C.ar    1  UNL1        0.0153
      4 C         139.8373  140.8712  168.7237 C.ar    1  UNL1        0.0124
      5 C         140.9399  141.5144  169.5114 C.ar    1  UNL1        0.0791
      6 C         142.2622  141.7939  168.8605 C.ar    1  UNL1        0.0685
      7 CL        143.3648  142.4371  169.6482 Cl      1  UNL1       -0.0815
      8 C         142.4817  141.4302  167.4220 C.ar    1  UNL1        0.0266
      9 C         140.7204  141.8781  170.9500 C.1     1  UNL1        0.1013
     10 N         140.5008  142.2418  172.3886 N.1     1  UNL1       -0.1908
     11 N         141.7387  143.3033  162.5974 N.3     1  UNL1       -0.1577
     12 C         143.1921  142.9527  162.7201 C.3     1  UNL1        0.0972
     13 C         143.3164  141.8311  163.7084 C.3     1  UNL1        0.0403
     14 C         141.9400  141.4886  164.1964 C.3     1  UNL1        0.0922
     15 C         140.9650  142.3985  163.5098 C.3     1  UNL1        0.1151
     16 S         141.1607  144.3712  161.7169 S.O2    1  UNL1        0.0421
     17 O         139.8904  144.3410  162.5141 O.2     1  UNL1       -0.1573
     18 O         142.4310  144.4015  160.9196 O.2     1  UNL1       -0.1573
     19 C         139.6169  146.4372  161.4032 C.3     1  UNL1        0.0270
     20 C         140.5827  145.4392  160.8363 C.3     1  UNL1        0.1459
     21 C         140.9704  145.5091  159.3890 C.3     1  UNL1        0.0270
     22 C         141.4768  138.9942  164.7564 C.3     1  UNL1        0.1176
     23 C         140.6911  138.6525  163.5252 C.ar    1  UNL1        0.0015
     24 C         141.3709  138.6121  162.1888 C.ar    1  UNL1       -0.0027
     25 C         140.5852  138.2703  160.9576 C.ar    1  UNL1       -0.0003
     26 C         139.1196  137.9689  161.0628 C.ar    1  UNL1       -0.0001
     27 C         138.4396  138.0093  162.3993 C.ar    1  UNL1        0.0036
     28 C         139.2254  138.3511  163.6305 C.ar    1  UNL1        0.0691
     29 C         138.5455  138.3915  164.9669 C.3     1  UNL1        0.4183
     30 F         137.8656  138.4319  166.3033 F       1  UNL1       -0.1659
     31 F         139.0055  136.9908  165.2433 F       1  UNL1       -0.1659
     32 F         138.0855  139.7922  164.6905 F       1  UNL1       -0.1659
@<TRIPOS>BOND
     1    19    20    1
     2    20    21    1
     3    20    16    1
     4    16    17    2
     5    16    18    2
     6    16    11    1
     7    11    12    1
     8    12    13    1
     9    13    14    1
    10    14     1    1
    11     1    22    1
    12    22    23    1
    13    23    24   ar
    14    24    25   ar
    15    25    26   ar
    16    26    27   ar
    17    27    28   ar
    18    28    29    1
    19    29    30    1
    20    29    31    1
    21    29    32    1
    22     1     2    1
    23     2     3   ar
    24     3     4   ar
    25     4     5   ar
    26     5     9    1
    27     9    10    3
    28     5     6   ar
    29     6     7    1
    30     6     8   ar
    31    14    15    1
    32    15    11    1
    33    28    23   ar
    34     8     2   ar
@<TRIPOS>MOLECULE
*****
 32 34 0 0 0
SMALL
GASTEIGER

@<TRIPOS>ATOM
      1 N         142.5647  139.5953  164.8153 N.pl3   1  UNL1       -0.3037
      2 C         142.3970  140.1389  166.2033 C.ar    1  UNL1        0.0490
      3 C         142.0833  141.5915  166.4071 C.ar    1  UNL1        0.0153
      4 C         141.9156  142.1350  167.7950 C.ar    1  UNL1        0.0124
      5 C         142.0616  141.2260  168.9792 C.ar    1  UNL1        0.0791
      6 C         142.3754  139.7734  168.7755 C.ar    1  UNL1        0.0685
      7 CL        142.5214  138.8644  169.9596 Cl      1  UNL1       -0.0815
      8 C         142.5431  139.2298  167.3875 C.ar    1  UNL1        0.0266
      9 C         141.8939  141.7696  170.3672 C.1     1  UNL1        0.1013
     10 N         141.7262  142.3131  171.7551 N.1     1  UNL1       -0.1908
     11 N         144.0601  141.5268  161.7988 N.3     1  UNL1       -0.1577
     12 C         145.2385  141.4795  162.7257 C.3     1  UNL1        0.0972
     13 C         144.8218  140.7502  163.9686 C.3     1  UNL1        0.0403
     14 C         143.3858  140.3468  163.8097 C.3     1  UNL1        0.0922
     15 C         142.9151  140.8267  162.4688 C.3     1  UNL1        0.1151
     16 S         144.0317  142.1624  160.4406 S.O2    1  UNL1        0.0421
     17 O         144.0493  140.8041  159.8045 O.2     1  UNL1       -0.1573
     18 O         144.0140  143.5208  161.0766 O.2     1  UNL1       -0.1573
     19 C         145.1350  142.5712  158.1241 C.3     1  UNL1        0.0270
     20 C         144.0032  142.7981  159.0822 C.3     1  UNL1        0.1459
     21 C         142.8432  143.6607  158.6819 C.3     1  UNL1        0.0270
     22 C         141.9114  138.3004  164.4330 C.3     1  UNL1        0.1176
     23 C         140.7752  138.2940  163.4538 C.ar    1  UNL1        0.0015
     24 C         141.0399  138.0398  161.9994 C.ar    1  UNL1       -0.0027
     25 C         139.9037  138.0334  161.0201 C.ar    1  UNL1       -0.0003
     26 C         138.5027  138.2812  161.4953 C.ar    1  UNL1       -0.0001
     27 C         138.2379  138.5355  162.9497 C.ar    1  UNL1        0.0036
     28 C         139.3741  138.5418  163.9290 C.ar    1  UNL1        0.0691
     29 C         139.1094  138.7961  165.3833 C.3     1  UNL1        0.4183
     30 F         138.8447  139.0503  166.8377 F       1  UNL1       -0.1659
     31 F         139.2653  140.2702  165.1541 F       1  UNL1       -0.1659
     32 F         138.9535  137.3219  165.6126 F       1  UNL1       -0.1659
@<TRIPOS>BOND
     1    19    20    1
     2    20    21    1
     3    20    16    1
     4    16    17    2
     5    16    18    2
     6    16    11    1
     7    11    12    1
     8    12    13    1
     9    13    14    1
    10    14     1    1
    11     1    22    1
    12    22    23    1
    13    23    24   ar
    14    24    25   ar
    15    25    26   ar
    16    26    27   ar
    17    27    28   ar
    18    28    29    1
    19    29    30    1
    20    29    31    1
    21    29    32    1
    22     1     2    1
    23     2     3   ar
    24     3     4   ar
    25     4     5   ar
    26     5     9    1
    27     9    10    3
    28     5     6   ar
    29     6     7    1
    30     6     8   ar
    31    14    15    1
    32    15    11    1
    33    28    23   ar
    34     8     2   ar
@<TRIPOS>MOLECULE
*****
 32 34 0 0 0
SMALL
GASTEIGER

@<TRIPOS>ATOM
      1 N         142.1943  138.9210  161.8880 N.pl3   1  UNL1       -0.3037
      2 C         141.1784  138.7335  162.9755 C.ar    1  UNL1        0.0490
      3 C         141.1259  137.4431  163.7384 C.ar    1  UNL1        0.0153
      4 C         140.1099  137.2556  164.8259 C.ar    1  UNL1        0.0124
      5 C         139.1465  138.3585  165.1505 C.ar    1  UNL1        0.0791
      6 C         139.1990  139.6490  164.3876 C.ar    1  UNL1        0.0685
      7 CL        138.2356  140.7519  164.7122 Cl      1  UNL1       -0.0815
      8 C         140.2149  139.8365  163.3001 C.ar    1  UNL1        0.0266
      9 C         138.1306  138.1710  166.2381 C.1     1  UNL1        0.1013
     10 N         137.1146  137.9835  167.3256 N.1     1  UNL1       -0.1908
     11 N         141.9774  137.9605  158.1335 N.3     1  UNL1       -0.1577
     12 C         140.5644  138.3838  158.4065 C.3     1  UNL1        0.0972
     13 C         140.4737  138.7952  159.8462 C.3     1  UNL1        0.0403
     14 C         141.8306  138.6260  160.4629 C.3     1  UNL1        0.0922
     15 C         142.7599  138.1102  159.4044 C.3     1  UNL1        0.1151
     16 S         142.5136  137.4731  156.8202 S.O2    1  UNL1        0.0421
     17 O         141.3112  136.5913  156.6566 O.2     1  UNL1       -0.1573
     18 O         143.7160  138.3549  156.9838 O.2     1  UNL1       -0.1573
     19 C         142.5813  137.6116  154.2267 C.3     1  UNL1        0.0270
     20 C         143.0498  136.9857  155.5069 C.3     1  UNL1        0.1459
     21 C         144.0545  135.8724  155.4737 C.3     1  UNL1        0.0270
     22 C         143.5739  139.4034  162.2255 C.3     1  UNL1        0.1176
     23 C         143.7585  140.7147  162.9302 C.ar    1  UNL1        0.0015
     24 C         143.7422  141.9949  162.1487 C.ar    1  UNL1       -0.0027
     25 C         143.9268  143.3061  162.8534 C.ar    1  UNL1       -0.0003
     26 C         144.1275  143.3371  164.3396 C.ar    1  UNL1       -0.0001
     27 C         144.1438  142.0569  165.1211 C.ar    1  UNL1        0.0036
     28 C         143.9593  140.7456  164.4164 C.ar    1  UNL1        0.0691
     29 C         143.9755  139.4654  165.1978 C.3     1  UNL1        0.4183
     30 F         143.9918  138.1852  165.9793 F       1  UNL1       -0.1659
     31 F         142.5788  139.7373  165.6724 F       1  UNL1       -0.1659
     32 F         145.3722  139.1935  164.7233 F       1  UNL1       -0.1659
@<TRIPOS>BOND
     1    19    20    1
     2    20    21    1
     3    20    16    1
     4    16    17    2
     5    16    18    2
     6    16    11    1
     7    11    12    1
     8    12    13    1
     9    13    14    1
    10    14     1    1
    11     1    22    1
    12    22    23    1
    13    23    24   ar
    14    24    25   ar
    15    25    26   ar
    16    26    27   ar
    17    27    28   ar
    18    28    29    1
    19    29    30    1
    20    29    31    1
    21    29    32    1
    22     1     2    1
    23     2     3   ar
    24     3     4   ar
    25     4     5   ar
    26     5     9    1
    27     9    10    3
    28     5     6   ar
    29     6     7    1
    30     6     8   ar
    31    14    15    1
    32    15    11    1
    33    28    23   ar
    34     8     2   ar
@<TRIPOS>MOLECULE
*****
 32 34 0 0 0
SMALL
GASTEIGER

@<TRIPOS>ATOM
      1 N         141.2094  140.0557  164.8886 N.pl3   1  UNL1       -0.3037
      2 C         141.0929  140.4577  166.3290 C.ar    1  UNL1        0.0490
      3 C         139.8620  140.1031  167.1094 C.ar    1  UNL1        0.0153
      4 C         139.7455  140.5051  168.5498 C.ar    1  UNL1        0.0124
      5 C         140.8599  141.2616  169.2099 C.ar    1  UNL1        0.0791
      6 C         142.0909  141.6162  168.4294 C.ar    1  UNL1        0.0685
      7 CL        143.2054  142.3727  169.0895 Cl      1  UNL1       -0.0815
      8 C         142.2074  141.2142  166.9890 C.ar    1  UNL1        0.0266
      9 C         140.7434  141.6636  170.6503 C.1     1  UNL1        0.1013
     10 N         140.6269  142.0656  172.0907 N.1     1  UNL1       -0.1908
     11 N         139.9282  142.6550  162.3064 N.3     1  UNL1       -0.1577
     12 C         138.9652  141.5267  162.0840 C.3     1  UNL1        0.0972
     13 C         139.3279  140.4156  163.0243 C.3     1  UNL1        0.0403
     14 C         140.5151  140.8573  163.8277 C.3     1  UNL1        0.0922
     15 C         140.8861  142.2413  163.3840 C.3     1  UNL1        0.1151
     16 S         139.9326  143.9667  161.5789 S.O2    1  UNL1        0.0421
     17 O         138.9513  143.4189  160.5854 O.2     1  UNL1       -0.1573
     18 O         140.9139  144.5146  162.5724 O.2     1  UNL1       -0.1573
     19 C         140.2810  145.3255  159.3920 C.3     1  UNL1        0.0270
     20 C         139.9370  145.2784  160.8513 C.3     1  UNL1        0.1459
     21 C         139.5974  146.5431  161.5830 C.3     1  UNL1        0.0270
     22 C         142.0201  138.8521  164.5090 C.3     1  UNL1        0.1176
     23 C         142.5176  138.6961  163.1026 C.ar    1  UNL1        0.0015
     24 C         141.7583  137.8449  162.1285 C.ar    1  UNL1       -0.0027
     25 C         142.2559  137.6888  160.7220 C.ar    1  UNL1       -0.0003
     26 C         143.5127  138.3840  160.2897 C.ar    1  UNL1       -0.0001
     27 C         144.2721  139.2353  161.2638 C.ar    1  UNL1        0.0036
     28 C         143.7746  139.3913  162.6702 C.ar    1  UNL1        0.0691
     29 C         144.5339  140.2425  163.6443 C.3     1  UNL1        0.4183
     30 F         145.2932  141.0937  164.6184 F       1  UNL1       -0.1659
     31 F         143.8664  141.4678  163.0939 F       1  UNL1       -0.1659
     32 F         145.2014  139.0171  164.1947 F       1  UNL1       -0.1659
@<TRIPOS>BOND
     1    19    20    1
     2    20    21    1
     3    20    16    1
     4    16    17    2
     5    16    18    2
     6    16    11    1
     7    11    12    1
     8    12    13    1
     9    13    14    1
    10    14     1    1
    11     1    22    1
    12    22    23    1
    13    23    24   ar
    14    24    25   ar
    15    25    26   ar
    16    26    27   ar
    17    27    28   ar
    18    28    29    1
    19    29    30    1
    20    29    31    1
    21    29    32    1
    22     1     2    1
    23     2     3   ar
    24     3     4   ar
    25     4     5   ar
    26     5     9    1
    27     9    10    3
    28     5     6   ar
    29     6     7    1
    30     6     8   ar
    31    14    15    1
    32    15    11    1
    33    28    23   ar
    34     8     2   ar
@<TRIPOS>MOLECULE
*****
 32 34 0 0 0
SMALL
GASTEIGER

@<TRIPOS>ATOM
      1 N         142.4264  142.3675  163.5901 N.pl3   1  UNL1       -0.3037
      2 C         141.7108  141.8962  164.8212 C.ar    1  UNL1        0.0490
      3 C         142.3053  142.1447  166.1758 C.ar    1  UNL1        0.0153
      4 C         141.5896  141.6735  167.4069 C.ar    1  UNL1        0.0124
      5 C         140.2794  140.9537  167.2835 C.ar    1  UNL1        0.0791
      6 C         139.6849  140.7051  165.9290 C.ar    1  UNL1        0.0685
      7 CL        138.3747  139.9853  165.8056 Cl      1  UNL1       -0.0815
      8 C         140.4005  141.1763  164.6978 C.ar    1  UNL1        0.0266
      9 C         139.5637  140.4824  168.5147 C.1     1  UNL1        0.1013
     10 N         138.8481  140.0111  169.7458 N.1     1  UNL1       -0.1908
     11 N         141.2125  144.8121  160.8304 N.3     1  UNL1       -0.1577
     12 C         140.6046  145.4313  162.0540 C.3     1  UNL1        0.0972
     13 C         140.9854  144.5909  163.2367 C.3     1  UNL1        0.0403
     14 C         141.8286  143.4523  162.7440 C.3     1  UNL1        0.0922
     15 C         141.9689  143.5890  161.2569 C.3     1  UNL1        0.1151
     16 S         141.0861  145.3257  159.4269 S.O2    1  UNL1        0.0421
     17 O         139.7331  145.8849  159.7533 O.2     1  UNL1       -0.1573
     18 O         142.4392  144.7666  159.1003 O.2     1  UNL1       -0.1573
     19 C         142.1185  145.7289  157.0769 C.3     1  UNL1        0.0270
     20 C         140.9598  145.8394  158.0232 C.3     1  UNL1        0.1459
     21 C         139.6748  146.4636  157.5658 C.3     1  UNL1        0.0270
     22 C         143.7399  141.7540  163.2050 C.3     1  UNL1        0.1176
     23 C         143.7709  140.5344  162.3322 C.ar    1  UNL1        0.0015
     24 C         143.7365  140.6792  160.8397 C.ar    1  UNL1       -0.0027
     25 C         143.7675  139.4597  159.9669 C.ar    1  UNL1       -0.0003
     26 C         143.8328  138.0953  160.5867 C.ar    1  UNL1       -0.0001
     27 C         143.8672  137.9504  162.0793 C.ar    1  UNL1        0.0036
     28 C         143.8362  139.1700  162.9521 C.ar    1  UNL1        0.0691
     29 C         143.8706  139.0252  164.4447 C.3     1  UNL1        0.4183
     30 F         143.9050  138.8804  165.9372 F       1  UNL1       -0.1659
     31 F         145.3403  139.3249  164.4399 F       1  UNL1       -0.1659
     32 F         142.4009  138.7254  164.4494 F       1  UNL1       -0.1659
@<TRIPOS>BOND
     1    19    20    1
     2    20    21    1
     3    20    16    1
     4    16    17    2
     5    16    18    2
     6    16    11    1
     7    11    12    1
     8    12    13    1
     9    13    14    1
    10    14     1    1
    11     1    22    1
    12    22    23    1
    13    23    24   ar
    14    24    25   ar
    15    25    26   ar
    16    26    27   ar
    17    27    28   ar
    18    28    29    1
    19    29    30    1
    20    29    31    1
    21    29    32    1
    22     1     2    1
    23     2     3   ar
    24     3     4   ar
    25     4     5   ar
    26     5     9    1
    27     9    10    3
    28     5     6   ar
    29     6     7    1
    30     6     8   ar
    31    14    15    1
    32    15    11    1
    33    28    23   ar
    34     8     2   ar
@<TRIPOS>MOLECULE
*****
 32 34 0 0 0
SMALL
GASTEIGER

@<TRIPOS>ATOM
      1 N         140.5518  141.2348  163.3145 N.pl3   1  UNL1       -0.3037
      2 C         141.2440  141.5239  164.6134 C.ar    1  UNL1        0.0490
      3 C         142.7297  141.7280  164.6423 C.ar    1  UNL1        0.0153
      4 C         143.4219  142.0172  165.9413 C.ar    1  UNL1        0.0124
      5 C         142.6284  142.1023  167.2113 C.ar    1  UNL1        0.0791
      6 C         141.1426  141.8982  167.1824 C.ar    1  UNL1        0.0685
      7 CL        140.3490  141.9832  168.4525 Cl      1  UNL1       -0.0815
      8 C         140.4504  141.6090  165.8835 C.ar    1  UNL1        0.0266
      9 C         143.3206  142.3914  168.5102 C.1     1  UNL1        0.1013
     10 N         144.0128  142.6806  169.8092 N.1     1  UNL1       -0.1908
     11 N         141.8308  138.8498  160.5320 N.3     1  UNL1       -0.1577
     12 C         141.6892  137.9006  161.6849 C.3     1  UNL1        0.0972
     13 C         141.1929  138.6785  162.8676 C.3     1  UNL1        0.0403
     14 C         141.0277  140.1084  162.4455 C.3     1  UNL1        0.0922
     15 C         141.4219  140.2143  161.0022 C.3     1  UNL1        0.1151
     16 S         142.2989  138.4966  159.1515 S.O2    1  UNL1        0.0421
     17 O         140.8769  138.2848  158.7235 O.2     1  UNL1       -0.1573
     18 O         143.7209  138.7083  159.5795 O.2     1  UNL1       -0.1573
     19 C         142.7351  136.7160  157.3104 C.3     1  UNL1        0.0270
     20 C         142.7671  138.1433  157.7709 C.3     1  UNL1        0.1459
     21 C         143.2673  139.2172  156.8509 C.3     1  UNL1        0.0270
     22 C         139.3838  142.0718  162.8845 C.3     1  UNL1        0.1176
     23 C         139.6135  143.3569  162.1457 C.ar    1  UNL1        0.0015
     24 C         139.9115  143.3339  160.6758 C.ar    1  UNL1       -0.0027
     25 C         140.1413  144.6190  159.9369 C.ar    1  UNL1       -0.0003
     26 C         140.0731  145.9270  160.6680 C.ar    1  UNL1       -0.0001
     27 C         139.7750  145.9499  162.1380 C.ar    1  UNL1        0.0036
     28 C         139.5453  144.6649  162.8768 C.ar    1  UNL1        0.0691
     29 C         139.2473  144.6878  164.3467 C.3     1  UNL1        0.4183
     30 F         138.9493  144.7108  165.8166 F       1  UNL1       -0.1659
     31 F         140.7163  144.7499  164.6435 F       1  UNL1       -0.1659
     32 F         137.7783  144.6258  164.0498 F       1  UNL1       -0.1659
@<TRIPOS>BOND
     1    19    20    1
     2    20    21    1
     3    20    16    1
     4    16    17    2
     5    16    18    2
     6    16    11    1
     7    11    12    1
     8    12    13    1
     9    13    14    1
    10    14     1    1
    11     1    22    1
    12    22    23    1
    13    23    24   ar
    14    24    25   ar
    15    25    26   ar
    16    26    27   ar
    17    27    28   ar
    18    28    29    1
    19    29    30    1
    20    29    31    1
    21    29    32    1
    22     1     2    1
    23     2     3   ar
    24     3     4   ar
    25     4     5   ar
    26     5     9    1
    27     9    10    3
    28     5     6   ar
    29     6     7    1
    30     6     8   ar
    31    14    15    1
    32    15    11    1
    33    28    23   ar
    34     8     2   ar
