@<TRIPOS>MOLECULE
*****
 35 38 0 0 0
SMALL
GASTEIGER

@<TRIPOS>ATOM
      1 C         141.4174  139.7600  164.0297 C.2     1  UNL1        0.1397
      2 C         141.6617  139.9970  162.5689 C.2     1  UNL1        0.1355
      3 N         141.3567  141.3357  161.9649 N.pl3   1  UNL1       -0.1998
      4 C         140.8075  142.4375  162.8218 C.2     1  UNL1        0.3442
      5 N         140.5632  142.2006  164.2826 N.2     1  UNL1       -0.0580
      6 C         140.8682  140.8618  164.8866 C.3     1  UNL1        0.2692
      7 H         141.5170  141.4912  161.0061 H       1  UNL1        0.2983
      8 C         140.6239  140.6249  166.3476 C.ar    1  UNL1        0.0371
      9 C         141.6803  140.9794  167.3517 C.ar    1  UNL1        0.0030
     10 C         141.4361  140.7425  168.8126 C.ar    1  UNL1        0.0295
     11 C         140.1354  140.1512  169.2694 C.ar    1  UNL1        0.1406
     12 F         139.8911  139.9143  170.7302 F       1  UNL1       -0.2042
     13 C         139.0790  139.7968  168.2652 C.ar    1  UNL1        0.0362
     14 C         139.3232  140.0337  166.8043 C.ar    1  UNL1        0.0372
     15 BR        138.2668  139.6793  165.8001 Br      1  UNL1       -0.0491
     16 C         140.5025  143.7763  162.2178 C.ar    1  UNL1        0.1931
     17 N         139.9531  144.9673  162.9455 N.ar    1  UNL1       -0.2297
     18 C         139.8045  146.0862  161.9576 C.ar    1  UNL1        0.1067
     19 C         140.2620  145.5866  160.6193 C.ar    1  UNL1        0.0577
     20 S         140.6934  144.1590  160.7801 S.2     1  UNL1       -0.0586
     21 C         141.7224  138.4213  164.6337 C.2     1  UNL1        0.3447
     22 O         140.6872  137.3359  164.6132 O.2     1  UNL1       -0.2450
     23 O         143.0624  138.1679  165.2581 O.3     1  UNL1       -0.4455
     24 C         145.0388  139.4622  164.1770 C.3     1  UNL1        0.0513
     25 C         144.0826  139.2660  165.3160 C.3     1  UNL1        0.2089
     26 C         142.2109  138.8951  161.7119 C.3     1  UNL1        0.1405
     27 N         141.7684  138.7635  160.2847 N.3     1  UNL1       -0.2608
     28 C         142.7751  138.8516  159.1762 C.3     1  UNL1        0.1050
     29 C         142.3326  138.7200  157.7490 C.3     1  UNL1        0.1595
     30 O         140.8834  138.5003  157.4303 O.3     1  UNL1       -0.3508
     31 C         139.8767  138.4122  158.5388 C.3     1  UNL1        0.1606
     32 C         140.3192  138.5438  159.9660 C.3     1  UNL1        0.1173
     33 C         139.3125  138.4556  161.0745 C.3     1  UNL1        0.1556
     34 O         139.3530  137.3039  162.0346 O.3     1  UNL1       -0.3805
     35 H         139.1470  136.4820  161.5625 H       1  UNL1        0.2105
@<TRIPOS>BOND
     1    24    25    1
     2    25    23    1
     3    23    21    1
     4    21    22    2
     5    21     1    1
     6     1     2    2
     7     2    26    1
     8    26    27    1
     9    27    28    1
    10    28    29    1
    11    29    30    1
    12    30    31    1
    13    31    32    1
    14    32    33    1
    15    33    34    1
    16     2     3    1
    17     3     4    1
    18     4    16    1
    19    16    17   ar
    20    17    18   ar
    21    18    19   ar
    22    19    20   ar
    23     4     5    2
    24     5     6    1
    25     6     8    1
    26     8     9   ar
    27     9    10   ar
    28    10    11   ar
    29    11    12    1
    30    11    13   ar
    31    13    14   ar
    32    14    15    1
    33     6     1    1
    34    14     8   ar
    35    32    27    1
    36    20    16   ar
    37    34    35    1
    38     3     7    1
@<TRIPOS>MOLECULE
*****
 35 38 0 0 0
SMALL
GASTEIGER

@<TRIPOS>ATOM
      1 C         139.1721  141.4954  160.7145 C.2     1  UNL1        0.1397
      2 C         139.2985  140.9473  159.3240 C.2     1  UNL1        0.1355
      3 N         139.4662  141.8810  158.1621 N.pl3   1  UNL1       -0.1998
      4 C         139.5076  143.3629  158.3907 C.2     1  UNL1        0.3442
      5 N         139.3813  143.9110  159.7812 N.2     1  UNL1       -0.0580
      6 C         139.2136  142.9773  160.9431 C.3     1  UNL1        0.2692
      7 H         139.5491  141.5212  157.2494 H       1  UNL1        0.2983
      8 C         139.0872  143.5255  162.3336 C.ar    1  UNL1        0.0371
      9 C         137.7299  143.7353  162.9367 C.ar    1  UNL1        0.0030
     10 C         137.6035  144.2835  164.3271 C.ar    1  UNL1        0.0295
     11 C         138.8345  144.6219  165.1147 C.ar    1  UNL1        0.1406
     12 F         138.7082  145.1701  166.5052 F       1  UNL1       -0.2042
     13 C         140.1919  144.4121  164.5117 C.ar    1  UNL1        0.0362
     14 C         140.3182  143.8639  163.1211 C.ar    1  UNL1        0.0372
     15 BR        141.6755  143.6541  162.5181 Br      1  UNL1       -0.0491
     16 C         139.6754  144.2966  157.2288 C.ar    1  UNL1        0.1931
     17 N         139.0483  144.1411  155.8750 N.ar    1  UNL1       -0.2297
     18 C         139.4850  145.2982  155.0262 C.ar    1  UNL1        0.1067
     19 C         140.3820  146.1688  155.8553 C.ar    1  UNL1        0.0577
     20 S         140.4996  145.5498  157.2166 S.2     1  UNL1       -0.0586
     21 C         139.0044  140.5617  161.8764 C.2     1  UNL1        0.3447
     22 O         137.6552  139.9838  162.1855 O.2     1  UNL1       -0.2450
     23 O         140.1859  140.2058  162.7292 O.3     1  UNL1       -0.4455
     24 C         139.1112  140.8733  164.9985 C.3     1  UNL1        0.0513
     25 C         140.0062  139.9724  164.2000 C.3     1  UNL1        0.2089
     26 C         139.2571  139.4653  159.0953 C.3     1  UNL1        0.1405
     27 N         140.5183  138.7209  158.7715 N.3     1  UNL1       -0.2608
     28 C         141.6552  138.7102  159.7499 C.3     1  UNL1        0.1050
     29 C         142.9165  137.9657  159.4260 C.3     1  UNL1        0.1595
     30 O         143.0409  137.2320  158.1237 O.3     1  UNL1       -0.3508
     31 C         141.9041  137.2427  157.1452 C.3     1  UNL1        0.1606
     32 C         140.6428  137.9871  157.4691 C.3     1  UNL1        0.1173
     33 C         139.5059  137.9978  156.4906 C.3     1  UNL1        0.1556
     34 O         138.7752  136.7262  156.1760 O.3     1  UNL1       -0.3805
     35 H         139.3742  136.1129  155.7221 H       1  UNL1        0.2105
@<TRIPOS>BOND
     1    24    25    1
     2    25    23    1
     3    23    21    1
     4    21    22    2
     5    21     1    1
     6     1     2    2
     7     2    26    1
     8    26    27    1
     9    27    28    1
    10    28    29    1
    11    29    30    1
    12    30    31    1
    13    31    32    1
    14    32    33    1
    15    33    34    1
    16     2     3    1
    17     3     4    1
    18     4    16    1
    19    16    17   ar
    20    17    18   ar
    21    18    19   ar
    22    19    20   ar
    23     4     5    2
    24     5     6    1
    25     6     8    1
    26     8     9   ar
    27     9    10   ar
    28    10    11   ar
    29    11    12    1
    30    11    13   ar
    31    13    14   ar
    32    14    15    1
    33     6     1    1
    34    14     8   ar
    35    32    27    1
    36    20    16   ar
    37    34    35    1
    38     3     7    1
@<TRIPOS>MOLECULE
*****
 35 38 0 0 0
SMALL
GASTEIGER

@<TRIPOS>ATOM
      1 C         140.7117  140.3038  164.4037 C.2     1  UNL1        0.1397
      2 C         140.3617  140.2211  162.9475 C.2     1  UNL1        0.1355
      3 N         140.1716  141.4768  162.1493 N.pl3   1  UNL1       -0.1998
      4 C         140.3315  142.8152  162.8074 C.2     1  UNL1        0.3442
      5 N         140.6815  142.8979  164.2636 N.2     1  UNL1       -0.0580
      6 C         140.8716  141.6421  165.0618 C.3     1  UNL1        0.2692
      7 H         139.9419  141.4225  161.1935 H       1  UNL1        0.2983
      8 C         141.2217  141.7249  166.5180 C.ar    1  UNL1        0.0371
      9 C         140.1784  141.4400  167.5575 C.ar    1  UNL1        0.0030
     10 C         140.5284  141.5227  169.0137 C.ar    1  UNL1        0.0295
     11 C         141.9217  141.8903  169.4306 C.ar    1  UNL1        0.1406
     12 F         142.2716  141.9730  170.8868 F       1  UNL1       -0.2042
     13 C         142.9649  142.1751  168.3911 C.ar    1  UNL1        0.0362
     14 C         142.6149  142.0924  166.9348 C.ar    1  UNL1        0.0372
     15 BR        143.6582  142.3773  165.8954 Br      1  UNL1       -0.0491
     16 C         140.1414  144.0709  162.0093 C.ar    1  UNL1        0.1931
     17 N         140.4497  144.2443  160.5516 N.ar    1  UNL1       -0.2297
     18 C         140.1084  145.6543  160.1701 C.ar    1  UNL1        0.1067
     19 C         139.5892  146.3523  161.3920 C.ar    1  UNL1        0.0577
     20 S         139.6096  145.3737  162.5286 S.2     1  UNL1       -0.0586
     21 C         140.9018  139.0480  165.2018 C.2     1  UNL1        0.3447
     22 O         142.2796  138.6247  165.6172 O.2     1  UNL1       -0.2450
     23 O         139.7142  138.2156  165.5846 O.3     1  UNL1       -0.4455
     24 C         137.6356  138.6100  167.0926 C.3     1  UNL1        0.0513
     25 C         138.3845  138.8691  165.8189 C.3     1  UNL1        0.2089
     26 C         140.2018  138.8826  162.2893 C.3     1  UNL1        0.1405
     27 N         140.8631  138.6115  160.9706 N.3     1  UNL1       -0.2608
     28 C         140.0977  138.8013  159.6946 C.3     1  UNL1        0.1050
     29 C         140.7592  138.5302  158.3758 C.3     1  UNL1        0.1595
     30 O         142.1859  138.0693  158.3331 O.3     1  UNL1       -0.3508
     31 C         142.9513  137.8795  159.6091 C.3     1  UNL1        0.1606
     32 C         142.2900  138.1506  160.9278 C.3     1  UNL1        0.1173
     33 C         143.0554  137.9607  162.2038 C.3     1  UNL1        0.1556
     34 O         143.7054  139.1367  162.8705 O.3     1  UNL1       -0.3805
     35 H         144.4155  139.4775  162.3044 H       1  UNL1        0.2105
@<TRIPOS>BOND
     1    24    25    1
     2    25    23    1
     3    23    21    1
     4    21    22    2
     5    21     1    1
     6     1     2    2
     7     2    26    1
     8    26    27    1
     9    27    28    1
    10    28    29    1
    11    29    30    1
    12    30    31    1
    13    31    32    1
    14    32    33    1
    15    33    34    1
    16     2     3    1
    17     3     4    1
    18     4    16    1
    19    16    17   ar
    20    17    18   ar
    21    18    19   ar
    22    19    20   ar
    23     4     5    2
    24     5     6    1
    25     6     8    1
    26     8     9   ar
    27     9    10   ar
    28    10    11   ar
    29    11    12    1
    30    11    13   ar
    31    13    14   ar
    32    14    15    1
    33     6     1    1
    34    14     8   ar
    35    32    27    1
    36    20    16   ar
    37    34    35    1
    38     3     7    1
@<TRIPOS>MOLECULE
*****
 35 38 0 0 0
SMALL
GASTEIGER

@<TRIPOS>ATOM
      1 C         140.2699  140.6816  162.2036 C.2     1  UNL1        0.1397
      2 C         139.4422  141.0836  161.0190 C.2     1  UNL1        0.1355
      3 N         139.5579  140.3241  159.7307 N.pl3   1  UNL1       -0.1998
      4 C         140.5012  139.1625  159.6270 C.2     1  UNL1        0.3442
      5 N         141.3289  138.7605  160.8116 N.2     1  UNL1       -0.0580
      6 C         141.2132  139.5200  162.0999 C.3     1  UNL1        0.2692
      7 H         139.0147  140.5880  158.9532 H       1  UNL1        0.2983
      8 C         142.0409  139.1179  163.2845 C.ar    1  UNL1        0.0371
      9 C         143.3970  139.7243  163.4925 C.ar    1  UNL1        0.0030
     10 C         144.2247  139.3222  164.6770 C.ar    1  UNL1        0.0295
     11 C         143.6963  138.3137  165.6537 C.ar    1  UNL1        0.1406
     12 F         144.5240  137.9116  166.8383 F       1  UNL1       -0.2042
     13 C         142.3402  137.7073  165.4457 C.ar    1  UNL1        0.0362
     14 C         141.5125  138.1094  164.2611 C.ar    1  UNL1        0.0372
     15 BR        140.1564  137.5031  164.0531 Br      1  UNL1       -0.0491
     16 C         140.6169  138.4030  158.3387 C.ar    1  UNL1        0.1931
     17 N         139.4806  138.0090  157.4423 N.ar    1  UNL1       -0.2297
     18 C         140.0506  137.2666  156.2702 C.ar    1  UNL1        0.1067
     19 C         141.5393  137.2018  156.4421 C.ar    1  UNL1        0.0577
     20 S         141.8893  137.9041  157.7205 S.2     1  UNL1       -0.0586
     21 C         140.1542  141.4411  163.4919 C.2     1  UNL1        0.3447
     22 O         141.0274  142.6353  163.7395 O.2     1  UNL1       -0.2450
     23 O         139.1653  141.0064  164.5326 O.3     1  UNL1       -0.4455
     24 C         139.1700  139.7891  166.8279 C.3     1  UNL1        0.0513
     25 C         139.5685  140.9582  165.9766 C.3     1  UNL1        0.2089
     26 C         138.4988  142.2453  161.1227 C.3     1  UNL1        0.1405
     27 N         139.0314  143.6474  161.1101 N.3     1  UNL1       -0.2608
     28 C         139.9196  144.1023  159.9901 C.3     1  UNL1        0.1050
     29 C         140.4522  145.5046  159.9775 C.3     1  UNL1        0.1595
     30 O         140.0967  146.4519  161.0849 O.3     1  UNL1       -0.3508
     31 C         139.2086  145.9970  162.2048 C.3     1  UNL1        0.1606
     32 C         138.6760  144.5948  162.2174 C.3     1  UNL1        0.1173
     33 C         137.7878  144.1399  163.3374 C.3     1  UNL1        0.1556
     34 O         138.3386  144.0120  164.7267 O.3     1  UNL1       -0.3805
     35 H         139.0018  143.3043  164.7477 H       1  UNL1        0.2105
@<TRIPOS>BOND
     1    24    25    1
     2    25    23    1
     3    23    21    1
     4    21    22    2
     5    21     1    1
     6     1     2    2
     7     2    26    1
     8    26    27    1
     9    27    28    1
    10    28    29    1
    11    29    30    1
    12    30    31    1
    13    31    32    1
    14    32    33    1
    15    33    34    1
    16     2     3    1
    17     3     4    1
    18     4    16    1
    19    16    17   ar
    20    17    18   ar
    21    18    19   ar
    22    19    20   ar
    23     4     5    2
    24     5     6    1
    25     6     8    1
    26     8     9   ar
    27     9    10   ar
    28    10    11   ar
    29    11    12    1
    30    11    13   ar
    31    13    14   ar
    32    14    15    1
    33     6     1    1
    34    14     8   ar
    35    32    27    1
    36    20    16   ar
    37    34    35    1
    38     3     7    1
@<TRIPOS>MOLECULE
*****
 35 38 0 0 0
SMALL
GASTEIGER

@<TRIPOS>ATOM
      1 C         139.5741  142.1023  163.7199 C.2     1  UNL1        0.1397
      2 C         139.5974  142.0134  162.2228 C.2     1  UNL1        0.1355
      3 N         140.4744  141.0027  161.5450 N.pl3   1  UNL1       -0.1998
      4 C         141.3281  140.0810  162.3643 C.2     1  UNL1        0.3442
      5 N         141.3049  140.1699  163.8615 N.2     1  UNL1       -0.0580
      6 C         140.4279  141.1806  164.5393 C.3     1  UNL1        0.2692
      7 H         140.4896  140.9444  160.5623 H       1  UNL1        0.2983
      8 C         140.4047  141.2694  166.0365 C.ar    1  UNL1        0.0371
      9 C         141.2667  142.2743  166.7416 C.ar    1  UNL1        0.0030
     10 C         141.2436  142.3632  168.2388 C.ar    1  UNL1        0.0295
     11 C         140.3583  141.4472  169.0309 C.ar    1  UNL1        0.1406
     12 F         140.3352  141.5362  170.5281 F       1  UNL1       -0.2042
     13 C         139.4963  140.4424  168.3258 C.ar    1  UNL1        0.0362
     14 C         139.5195  140.3535  166.8286 C.ar    1  UNL1        0.0372
     15 BR        138.6575  139.3487  166.1235 Br      1  UNL1       -0.0491
     16 C         142.2052  139.0703  161.6865 C.ar    1  UNL1        0.1931
     17 N         141.8741  138.3145  160.4339 N.ar    1  UNL1       -0.2297
     18 C         143.0315  137.4151  160.1156 C.ar    1  UNL1        0.1067
     19 C         144.0780  137.6150  161.1715 C.ar    1  UNL1        0.0577
     20 S         143.5673  138.6380  162.1424 S.2     1  UNL1       -0.0586
     21 C         138.6971  143.1130  164.3977 C.2     1  UNL1        0.3447
     22 O         137.2501  142.8048  164.6448 O.2     1  UNL1       -0.2450
     23 O         139.2671  144.4319  164.8285 O.3     1  UNL1       -0.4455
     24 C         141.6477  144.9750  163.9407 C.3     1  UNL1        0.0513
     25 C         140.1649  145.1989  163.9035 C.3     1  UNL1        0.2089
     26 C         138.7436  142.9352  161.4033 C.3     1  UNL1        0.1405
     27 N         139.2949  143.5558  160.1541 N.3     1  UNL1       -0.2608
     28 C         140.0978  144.8203  160.2361 C.3     1  UNL1        0.1050
     29 C         140.6492  145.4409  158.9867 C.3     1  UNL1        0.1595
     30 O         140.3977  144.7971  157.6554 O.3     1  UNL1       -0.3508
     31 C         139.5949  143.5327  157.5735 C.3     1  UNL1        0.1606
     32 C         139.0435  142.9121  158.8227 C.3     1  UNL1        0.1173
     33 C         138.2407  141.6477  158.7407 C.3     1  UNL1        0.1556
     34 O         138.9076  140.3208  158.9520 O.3     1  UNL1       -0.3805
     35 H         139.5395  140.1586  158.2342 H       1  UNL1        0.2105
@<TRIPOS>BOND
     1    24    25    1
     2    25    23    1
     3    23    21    1
     4    21    22    2
     5    21     1    1
     6     1     2    2
     7     2    26    1
     8    26    27    1
     9    27    28    1
    10    28    29    1
    11    29    30    1
    12    30    31    1
    13    31    32    1
    14    32    33    1
    15    33    34    1
    16     2     3    1
    17     3     4    1
    18     4    16    1
    19    16    17   ar
    20    17    18   ar
    21    18    19   ar
    22    19    20   ar
    23     4     5    2
    24     5     6    1
    25     6     8    1
    26     8     9   ar
    27     9    10   ar
    28    10    11   ar
    29    11    12    1
    30    11    13   ar
    31    13    14   ar
    32    14    15    1
    33     6     1    1
    34    14     8   ar
    35    32    27    1
    36    20    16   ar
    37    34    35    1
    38     3     7    1
@<TRIPOS>MOLECULE
*****
 35 38 0 0 0
SMALL
GASTEIGER

@<TRIPOS>ATOM
      1 C         140.9240  140.9411  161.5354 C.2     1  UNL1        0.1397
      2 C         140.3626  141.3433  160.2039 C.2     1  UNL1        0.1355
      3 N         140.6821  140.5363  158.9805 N.pl3   1  UNL1       -0.1998
      4 C         141.5631  139.3271  159.0886 C.2     1  UNL1        0.3442
      5 N         142.1245  138.9249  160.4201 N.2     1  UNL1       -0.0580
      6 C         141.8050  139.7319  161.6435 C.3     1  UNL1        0.2692
      7 H         140.3136  140.8003  158.1066 H       1  UNL1        0.2983
      8 C         142.3665  139.3296  162.9750 C.ar    1  UNL1        0.0371
      9 C         141.5601  138.4659  163.8991 C.ar    1  UNL1        0.0030
     10 C         142.1215  138.0637  165.2305 C.ar    1  UNL1        0.0295
     11 C         143.4895  138.5250  165.6381 C.ar    1  UNL1        0.1406
     12 F         144.0509  138.1228  166.9696 F       1  UNL1       -0.2042
     13 C         144.2959  139.3887  164.7141 C.ar    1  UNL1        0.0362
     14 C         143.7344  139.7910  163.3825 C.ar    1  UNL1        0.0372
     15 BR        144.5408  140.6546  162.4585 Br      1  UNL1       -0.0491
     16 C         141.8826  138.5202  157.8652 C.ar    1  UNL1        0.1931
     17 N         143.2532  138.2576  157.3153 N.ar    1  UNL1       -0.2297
     18 C         143.1053  137.4093  156.0871 C.ar    1  UNL1        0.1067
     19 C         141.6432  137.1475  155.8779 C.ar    1  UNL1        0.0577
     20 S         140.8876  137.8341  156.9768 S.2     1  UNL1       -0.0586
     21 C         140.6045  141.7480  162.7588 C.2     1  UNL1        0.3447
     22 O         139.3643  141.4528  163.5492 O.2     1  UNL1       -0.2450
     23 O         141.5252  142.8502  163.1918 O.3     1  UNL1       -0.4455
     24 C         142.1322  142.2745  165.6516 C.3     1  UNL1        0.0513
     25 C         141.5975  143.2423  164.6379 C.3     1  UNL1        0.2089
     26 C         139.4816  142.5525  160.0957 C.3     1  UNL1        0.1405
     27 N         139.6805  143.5274  158.9733 N.3     1  UNL1       -0.2608
     28 C         139.2056  143.1875  157.5916 C.3     1  UNL1        0.1050
     29 C         139.4045  144.1625  156.4691 C.3     1  UNL1        0.1595
     30 O         140.0783  145.4773  156.7283 O.3     1  UNL1       -0.3508
     31 C         140.5532  145.8172  158.1100 C.3     1  UNL1        0.1606
     32 C         140.3543  144.8423  159.2324 C.3     1  UNL1        0.1173
     33 C         140.8292  145.1822  160.6141 C.3     1  UNL1        0.1556
     34 O         142.2331  144.8526  161.0269 O.3     1  UNL1       -0.3805
     35 H         142.3460  143.8894  161.0488 H       1  UNL1        0.2105
@<TRIPOS>BOND
     1    24    25    1
     2    25    23    1
     3    23    21    1
     4    21    22    2
     5    21     1    1
     6     1     2    2
     7     2    26    1
     8    26    27    1
     9    27    28    1
    10    28    29    1
    11    29    30    1
    12    30    31    1
    13    31    32    1
    14    32    33    1
    15    33    34    1
    16     2     3    1
    17     3     4    1
    18     4    16    1
    19    16    17   ar
    20    17    18   ar
    21    18    19   ar
    22    19    20   ar
    23     4     5    2
    24     5     6    1
    25     6     8    1
    26     8     9   ar
    27     9    10   ar
    28    10    11   ar
    29    11    12    1
    30    11    13   ar
    31    13    14   ar
    32    14    15    1
    33     6     1    1
    34    14     8   ar
    35    32    27    1
    36    20    16   ar
    37    34    35    1
    38     3     7    1
@<TRIPOS>MOLECULE
*****
 35 38 0 0 0
SMALL
GASTEIGER

@<TRIPOS>ATOM
      1 C         142.3900  142.5740  160.8194 C.2     1  UNL1        0.1397
      2 C         142.3677  143.4641  159.6122 C.2     1  UNL1        0.1355
      3 N         143.3763  143.2707  158.5189 N.pl3   1  UNL1       -0.1998
      4 C         144.4072  142.1871  158.6328 C.2     1  UNL1        0.3442
      5 N         144.4296  141.2971  159.8399 N.2     1  UNL1       -0.0580
      6 C         143.4210  141.4905  160.9332 C.3     1  UNL1        0.2692
      7 H         143.3616  143.8549  157.7266 H       1  UNL1        0.2983
      8 C         143.4434  140.6004  162.1404 C.ar    1  UNL1        0.0371
      9 C         142.4595  139.4745  162.2604 C.ar    1  UNL1        0.0030
     10 C         142.4818  138.5844  163.4675 C.ar    1  UNL1        0.0295
     11 C         143.4882  138.8201  164.5546 C.ar    1  UNL1        0.1406
     12 F         143.5105  137.9299  165.7617 F       1  UNL1       -0.2042
     13 C         144.4721  139.9459  164.4346 C.ar    1  UNL1        0.0362
     14 C         144.4497  140.8360  163.2274 C.ar    1  UNL1        0.0372
     15 BR        145.4336  141.9619  163.1074 Br      1  UNL1       -0.0491
     16 C         145.4158  141.9937  157.5395 C.ar    1  UNL1        0.1931
     17 N         146.7073  142.7416  157.3889 N.ar    1  UNL1       -0.2297
     18 C         147.3997  142.2285  156.1611 C.ar    1  UNL1        0.1067
     19 C         146.5361  141.1635  155.5529 C.ar    1  UNL1        0.0577
     20 S         145.3101  141.0183  156.4048 S.2     1  UNL1       -0.0586
     21 C         141.3814  142.7675  161.9127 C.2     1  UNL1        0.3447
     22 O         140.0309  142.1230  161.8098 O.2     1  UNL1       -0.2450
     23 O         141.7234  143.6054  163.1088 O.3     1  UNL1       -0.4455
     24 C         143.6369  145.0894  164.0502 C.3     1  UNL1        0.0513
     25 C         142.6505  144.7757  162.9645 C.3     1  UNL1        0.2089
     26 C         141.3366  144.5477  159.4984 C.3     1  UNL1        0.1405
     27 N         140.7121  144.8520  158.1690 N.3     1  UNL1       -0.2608
     28 C         141.1759  146.0380  157.3763 C.3     1  UNL1        0.1050
     29 C         140.5513  146.3423  156.0469 C.3     1  UNL1        0.1595
     30 O         139.4630  145.4606  155.5101 O.3     1  UNL1       -0.3508
     31 C         138.9992  144.2746  156.3028 C.3     1  UNL1        0.1606
     32 C         139.6237  143.9703  157.6322 C.3     1  UNL1        0.1173
     33 C         139.1600  142.7843  158.4248 C.3     1  UNL1        0.1556
     34 O         138.2840  142.9813  159.6264 O.3     1  UNL1       -0.3805
     35 H         138.7799  143.4524  160.3142 H       1  UNL1        0.2105
@<TRIPOS>BOND
     1    24    25    1
     2    25    23    1
     3    23    21    1
     4    21    22    2
     5    21     1    1
     6     1     2    2
     7     2    26    1
     8    26    27    1
     9    27    28    1
    10    28    29    1
    11    29    30    1
    12    30    31    1
    13    31    32    1
    14    32    33    1
    15    33    34    1
    16     2     3    1
    17     3     4    1
    18     4    16    1
    19    16    17   ar
    20    17    18   ar
    21    18    19   ar
    22    19    20   ar
    23     4     5    2
    24     5     6    1
    25     6     8    1
    26     8     9   ar
    27     9    10   ar
    28    10    11   ar
    29    11    12    1
    30    11    13   ar
    31    13    14   ar
    32    14    15    1
    33     6     1    1
    34    14     8   ar
    35    32    27    1
    36    20    16   ar
    37    34    35    1
    38     3     7    1
@<TRIPOS>MOLECULE
*****
 35 38 0 0 0
SMALL
GASTEIGER

@<TRIPOS>ATOM
      1 C         142.1234  142.4979  163.9619 C.2     1  UNL1        0.1397
      2 C         141.9204  142.5164  162.4759 C.2     1  UNL1        0.1355
      3 N         140.8489  141.6703  161.8547 N.pl3   1  UNL1       -0.1998
      4 C         139.9803  140.8058  162.7195 C.2     1  UNL1        0.3442
      5 N         140.1833  140.7872  164.2056 N.2     1  UNL1       -0.0580
      6 C         141.2549  141.6333  164.8268 C.3     1  UNL1        0.2692
      7 H         140.7156  141.6825  160.8793 H       1  UNL1        0.2983
      8 C         141.4578  141.6148  166.3129 C.ar    1  UNL1        0.0371
      9 C         140.8553  142.6917  167.1656 C.ar    1  UNL1        0.0030
     10 C         141.0582  142.6732  168.6517 C.ar    1  UNL1        0.0295
     11 C         141.8638  141.5777  169.2851 C.ar    1  UNL1        0.1406
     12 F         142.0667  141.5592  170.7712 F       1  UNL1       -0.2042
     13 C         142.4663  140.5008  168.4324 C.ar    1  UNL1        0.0362
     14 C         142.2633  140.5193  166.9462 C.ar    1  UNL1        0.0372
     15 BR        142.8659  139.4424  166.0935 Br      1  UNL1       -0.0491
     16 C         138.9087  139.9597  162.0983 C.ar    1  UNL1        0.1931
     17 N         137.9171  140.4098  161.0668 N.ar    1  UNL1       -0.2297
     18 C         137.0361  139.2433  160.7305 C.ar    1  UNL1        0.1067
     19 C         137.4832  138.0722  161.5542 C.ar    1  UNL1        0.0577
     20 S         138.6406  138.5149  162.3996 S.2     1  UNL1       -0.0586
     21 C         143.1950  143.3440  164.5831 C.2     1  UNL1        0.3447
     22 O         143.0078  144.8279  164.6959 O.2     1  UNL1       -0.2450
     23 O         144.4538  142.7061  165.0915 O.3     1  UNL1       -0.4455
     24 C         145.7825  141.8005  163.0507 C.3     1  UNL1        0.0513
     25 C         145.0664  141.5574  164.3462 C.3     1  UNL1        0.2089
     26 C         142.7890  143.3810  161.6109 C.3     1  UNL1        0.1405
     27 N         142.2184  144.0278  160.3837 N.3     1  UNL1       -0.2608
     28 C         142.7929  143.7136  159.0342 C.3     1  UNL1        0.1050
     29 C         142.2222  144.3605  157.8070 C.3     1  UNL1        0.1595
     30 O         141.0771  145.3215  157.9294 O.3     1  UNL1       -0.3508
     31 C         140.5026  145.6358  159.2789 C.3     1  UNL1        0.1606
     32 C         141.0732  144.9890  160.5061 C.3     1  UNL1        0.1173
     33 C         140.4987  145.3032  161.8556 C.3     1  UNL1        0.1556
     34 O         141.2805  146.1356  162.8282 O.3     1  UNL1       -0.3805
     35 H         142.0772  145.6533  163.0993 H       1  UNL1        0.2105
@<TRIPOS>BOND
     1    24    25    1
     2    25    23    1
     3    23    21    1
     4    21    22    2
     5    21     1    1
     6     1     2    2
     7     2    26    1
     8    26    27    1
     9    27    28    1
    10    28    29    1
    11    29    30    1
    12    30    31    1
    13    31    32    1
    14    32    33    1
    15    33    34    1
    16     2     3    1
    17     3     4    1
    18     4    16    1
    19    16    17   ar
    20    17    18   ar
    21    18    19   ar
    22    19    20   ar
    23     4     5    2
    24     5     6    1
    25     6     8    1
    26     8     9   ar
    27     9    10   ar
    28    10    11   ar
    29    11    12    1
    30    11    13   ar
    31    13    14   ar
    32    14    15    1
    33     6     1    1
    34    14     8   ar
    35    32    27    1
    36    20    16   ar
    37    34    35    1
    38     3     7    1
@<TRIPOS>MOLECULE
*****
 35 38 0 0 0
SMALL
GASTEIGER

@<TRIPOS>ATOM
      1 C         140.4539  141.2491  161.0460 C.2     1  UNL1        0.1397
      2 C         140.7147  140.4519  159.8025 C.2     1  UNL1        0.1355
      3 N         139.7884  140.5690  158.6285 N.pl3   1  UNL1       -0.1998
      4 C         138.6014  141.4833  158.6980 C.2     1  UNL1        0.3442
      5 N         138.3406  142.2805  159.9415 N.2     1  UNL1       -0.0580
      6 C         139.2669  142.1634  161.1156 C.3     1  UNL1        0.2692
      7 H         139.9596  140.0457  157.8123 H       1  UNL1        0.2983
      8 C         139.0060  142.9606  162.3591 C.ar    1  UNL1        0.0371
      9 C         138.1568  142.3861  163.4540 C.ar    1  UNL1        0.0030
     10 C         137.8959  143.1833  164.6975 C.ar    1  UNL1        0.0295
     11 C         138.4844  144.5551  164.8462 C.ar    1  UNL1        0.1406
     12 F         138.2235  145.3523  166.0898 F       1  UNL1       -0.2042
     13 C         139.3337  145.1296  163.7514 C.ar    1  UNL1        0.0362
     14 C         139.5945  144.3323  162.5078 C.ar    1  UNL1        0.0372
     15 BR        140.4438  144.9068  161.4130 Br      1  UNL1       -0.0491
     16 C         137.6751  141.6004  157.5240 C.ar    1  UNL1        0.1931
     17 N         136.6405  140.5949  157.1134 N.ar    1  UNL1       -0.2297
     18 C         135.9468  141.1166  155.8901 C.ar    1  UNL1        0.1067
     19 C         136.5526  142.4446  155.5446 C.ar    1  UNL1        0.0577
     20 S         137.6207  142.7436  156.5544 S.2     1  UNL1       -0.0586
     21 C         141.3802  141.1319  162.2200 C.2     1  UNL1        0.3447
     22 O         142.4653  142.1474  162.4234 O.2     1  UNL1       -0.2450
     23 O         141.2214  139.9994  163.1906 O.3     1  UNL1       -0.4455
     24 C         140.1691  137.6351  162.9603 C.3     1  UNL1        0.0513
     25 C         140.0097  139.1178  163.1227 C.3     1  UNL1        0.2089
     26 C         141.9018  139.5375  159.7329 C.3     1  UNL1        0.1405
     27 N         142.7941  139.5573  158.5274 N.3     1  UNL1       -0.2608
     28 C         142.5951  138.5538  157.4304 C.3     1  UNL1        0.1050
     29 C         143.4875  138.5736  156.2248 C.3     1  UNL1        0.1595
     30 O         144.5788  139.5969  156.1163 O.3     1  UNL1       -0.3508
     31 C         144.7778  140.6004  157.2132 C.3     1  UNL1        0.1606
     32 C         143.8855  140.5806  158.4188 C.3     1  UNL1        0.1173
     33 C         144.0845  141.5842  159.5158 C.3     1  UNL1        0.1556
     34 O         143.2669  142.8415  159.5394 O.3     1  UNL1       -0.3805
     35 H         143.4962  143.3907  158.7734 H       1  UNL1        0.2105
@<TRIPOS>BOND
     1    24    25    1
     2    25    23    1
     3    23    21    1
     4    21    22    2
     5    21     1    1
     6     1     2    2
     7     2    26    1
     8    26    27    1
     9    27    28    1
    10    28    29    1
    11    29    30    1
    12    30    31    1
    13    31    32    1
    14    32    33    1
    15    33    34    1
    16     2     3    1
    17     3     4    1
    18     4    16    1
    19    16    17   ar
    20    17    18   ar
    21    18    19   ar
    22    19    20   ar
    23     4     5    2
    24     5     6    1
    25     6     8    1
    26     8     9   ar
    27     9    10   ar
    28    10    11   ar
    29    11    12    1
    30    11    13   ar
    31    13    14   ar
    32    14    15    1
    33     6     1    1
    34    14     8   ar
    35    32    27    1
    36    20    16   ar
    37    34    35    1
    38     3     7    1
