@<TRIPOS>MOLECULE
*****
 24 26 0 0 0
SMALL
GASTEIGER

@<TRIPOS>ATOM
      1 P         141.2750  141.2985  164.2116 P.3     1  UNL1        0.2266
      2 O         140.0923  141.9883  163.5987 O.2     1  UNL1       -0.2903
      3 C         140.3773  140.2079  164.7164 C.ar    1  UNL1        0.0498
      4 C         139.3952  140.4927  165.8139 C.ar    1  UNL1        0.0046
      5 C         138.4975  139.4022  166.3187 C.ar    1  UNL1        0.0002
      6 C         138.5819  138.0268  165.7260 C.ar    1  UNL1        0.0000
      7 C         139.5639  137.7421  164.6286 C.ar    1  UNL1        0.0002
      8 C         140.4616  138.8326  164.1238 C.ar    1  UNL1        0.0046
      9 C         142.1727  142.3891  163.7068 C.ar    1  UNL1        0.0498
     10 C         142.6251  143.4776  164.6344 C.ar    1  UNL1        0.0046
     11 C         143.5228  144.5681  164.1295 C.ar    1  UNL1        0.0002
     12 C         143.9681  144.5702  162.6972 C.ar    1  UNL1        0.0000
     13 C         143.5156  143.4816  161.7696 C.ar    1  UNL1        0.0002
     14 C         142.6179  142.3911  162.2745 C.ar    1  UNL1        0.0046
     15 N         142.4576  140.6087  164.8245 N.pl3   1  UNL1       -0.2602
     16 C         142.6091  140.5629  166.3162 C.ar    1  UNL1        0.0724
     17 C         142.6499  141.8378  167.1054 C.ar    1  UNL1        0.0180
     18 C         142.8014  141.7920  168.5970 C.ar    1  UNL1        0.0220
     19 C         142.9120  140.4712  169.2994 C.ar    1  UNL1        0.0990
     20 N         142.8712  139.1963  168.5102 N.ar    1  UNL1       -0.2410
     21 C         142.7197  139.2422  167.0186 C.ar    1  UNL1        0.1136
     22 C         143.4887  139.9648  163.9458 C.3     1  UNL1        0.0975
     23 C         145.7041  141.3220  163.9393 C.3     1  UNL1        0.0018
     24 C         144.9441  140.0775  164.2908 C.3     1  UNL1        0.0218
@<TRIPOS>BOND
     1    23    24    1
     2    24    22    1
     3    22    15    1
     4    15    16    1
     5    16    17   ar
     6    17    18   ar
     7    18    19   ar
     8    19    20   ar
     9    20    21   ar
    10    15     1    1
    11     1     2    2
    12     1     3    1
    13     3     4   ar
    14     4     5   ar
    15     5     6   ar
    16     6     7   ar
    17     7     8   ar
    18     1     9    1
    19     9    10   ar
    20    10    11   ar
    21    11    12   ar
    22    12    13   ar
    23    13    14   ar
    24    21    16   ar
    25     8     3   ar
    26    14     9   ar
@<TRIPOS>MOLECULE
*****
 24 26 0 0 0
SMALL
GASTEIGER

@<TRIPOS>ATOM
      1 P         141.2711  141.2861  164.2237 P.3     1  UNL1        0.2266
      2 O         140.0917  141.9754  163.6041 O.2     1  UNL1       -0.2903
      3 C         142.1745  142.3654  163.7051 C.ar    1  UNL1        0.0498
      4 C         142.6138  142.3509  162.2710 C.ar    1  UNL1        0.0046
      5 C         143.5172  143.4303  161.7523 C.ar    1  UNL1        0.0002
      6 C         143.9812  144.5241  162.6678 C.ar    1  UNL1        0.0000
      7 C         143.5418  144.5386  164.1019 C.ar    1  UNL1        0.0002
      8 C         142.6385  143.4593  164.6205 C.ar    1  UNL1        0.0046
      9 C         140.3678  140.2067  164.7423 C.ar    1  UNL1        0.0498
     10 C         139.3754  140.5148  165.8241 C.ar    1  UNL1        0.0046
     11 C         138.4721  139.4354  166.3427 C.ar    1  UNL1        0.0002
     12 C         138.5611  138.0481  165.7796 C.ar    1  UNL1        0.0000
     13 C         139.5534  137.7400  164.6978 C.ar    1  UNL1        0.0002
     14 C         140.4568  138.8194  164.1792 C.ar    1  UNL1        0.0046
     15 N         142.4505  140.5967  164.8433 N.pl3   1  UNL1       -0.2602
     16 C         142.6027  140.5661  166.3353 C.ar    1  UNL1        0.0724
     17 C         142.6740  141.8496  167.1084 C.ar    1  UNL1        0.0180
     18 C         142.8261  141.8189  168.6003 C.ar    1  UNL1        0.0220
     19 C         142.9070  140.5049  169.3191 C.ar    1  UNL1        0.0990
     20 N         142.8357  139.2214  168.5460 N.ar    1  UNL1       -0.2410
     21 C         142.6835  139.2521  167.0541 C.ar    1  UNL1        0.1136
     22 C         143.4776  139.9380  163.9710 C.3     1  UNL1        0.0975
     23 C         145.6812  141.3145  163.9679 C.3     1  UNL1        0.0018
     24 C         144.9348  140.0582  164.3063 C.3     1  UNL1        0.0218
@<TRIPOS>BOND
     1    23    24    1
     2    24    22    1
     3    22    15    1
     4    15    16    1
     5    16    17   ar
     6    17    18   ar
     7    18    19   ar
     8    19    20   ar
     9    20    21   ar
    10    15     1    1
    11     1     2    2
    12     1     3    1
    13     3     4   ar
    14     4     5   ar
    15     5     6   ar
    16     6     7   ar
    17     7     8   ar
    18     1     9    1
    19     9    10   ar
    20    10    11   ar
    21    11    12   ar
    22    12    13   ar
    23    13    14   ar
    24    21    16   ar
    25     8     3   ar
    26    14     9   ar
@<TRIPOS>MOLECULE
*****
 24 26 0 0 0
SMALL
GASTEIGER

@<TRIPOS>ATOM
      1 P         141.7252  140.1614  165.4066 P.3     1  UNL1        0.2266
      2 O         142.4145  139.5940  166.6120 O.2     1  UNL1       -0.2903
      3 C         140.4351  139.5385  165.8511 C.ar    1  UNL1        0.0498
      4 C         139.8476  138.3962  165.0765 C.ar    1  UNL1        0.0046
      5 C         138.5575  137.7734  165.5210 C.ar    1  UNL1        0.0002
      6 C         137.8548  138.2928  166.7402 C.ar    1  UNL1        0.0000
      7 C         138.4422  139.4351  167.5148 C.ar    1  UNL1        0.0002
      8 C         139.7324  140.0579  167.0703 C.ar    1  UNL1        0.0046
      9 C         143.0153  140.7842  164.9620 C.ar    1  UNL1        0.0498
     10 C         143.2958  142.2261  165.2655 C.ar    1  UNL1        0.0046
     11 C         144.5859  142.8490  164.8210 C.ar    1  UNL1        0.0002
     12 C         145.5956  142.0299  164.0729 C.ar    1  UNL1        0.0000
     13 C         145.3151  140.5880  163.7694 C.ar    1  UNL1        0.0002
     14 C         144.0250  139.9651  164.2140 C.ar    1  UNL1        0.0046
     15 N         141.0359  140.7287  164.2012 N.pl3   1  UNL1       -0.2602
     16 C         139.9929  141.7942  164.3658 C.ar    1  UNL1        0.0724
     17 C         140.3281  143.0670  165.0852 C.ar    1  UNL1        0.0180
     18 C         139.2851  144.1324  165.2498 C.ar    1  UNL1        0.0220
     19 C         137.9070  143.9250  164.6950 C.ar    1  UNL1        0.0990
     20 N         137.5719  142.6522  163.9756 N.ar    1  UNL1       -0.2410
     21 C         138.6148  141.5868  163.8110 C.ar    1  UNL1        0.1136
     22 C         141.3896  140.2307  162.8312 C.3     1  UNL1        0.0975
     23 C         142.5058  142.2408  161.6213 C.3     1  UNL1        0.0018
     24 C         141.4406  141.1861  161.6759 C.3     1  UNL1        0.0218
@<TRIPOS>BOND
     1    23    24    1
     2    24    22    1
     3    22    15    1
     4    15    16    1
     5    16    17   ar
     6    17    18   ar
     7    18    19   ar
     8    19    20   ar
     9    20    21   ar
    10    15     1    1
    11     1     2    2
    12     1     3    1
    13     3     4   ar
    14     4     5   ar
    15     5     6   ar
    16     6     7   ar
    17     7     8   ar
    18     1     9    1
    19     9    10   ar
    20    10    11   ar
    21    11    12   ar
    22    12    13   ar
    23    13    14   ar
    24    21    16   ar
    25     8     3   ar
    26    14     9   ar
@<TRIPOS>MOLECULE
*****
 24 26 0 0 0
SMALL
GASTEIGER

@<TRIPOS>ATOM
      1 P         141.7196  140.1522  165.3999 P.3     1  UNL1        0.2266
      2 O         142.4082  139.5832  166.6050 O.2     1  UNL1       -0.2903
      3 C         143.0094  140.7779  164.9584 C.ar    1  UNL1        0.0498
      4 C         144.0197  139.9630  164.2067 C.ar    1  UNL1        0.0046
      5 C         145.3094  140.5887  163.7651 C.ar    1  UNL1        0.0002
      6 C         145.5889  142.0294  164.0753 C.ar    1  UNL1        0.0000
      7 C         144.5786  142.8444  164.8270 C.ar    1  UNL1        0.0002
      8 C         143.2889  142.2186  165.2685 C.ar    1  UNL1        0.0046
      9 C         140.4299  139.5265  165.8415 C.ar    1  UNL1        0.0498
     10 C         139.8489  138.3802  165.0679 C.ar    1  UNL1        0.0046
     11 C         138.5592  137.7544  165.5095 C.ar    1  UNL1        0.0002
     12 C         137.8504  138.2750  166.7246 C.ar    1  UNL1        0.0000
     13 C         138.4313  139.4213  167.4981 C.ar    1  UNL1        0.0002
     14 C         139.7211  140.0470  167.0566 C.ar    1  UNL1        0.0046
     15 N         141.0310  140.7212  164.1949 N.pl3   1  UNL1       -0.2602
     16 C         139.9842  141.7827  164.3607 C.ar    1  UNL1        0.0724
     17 C         140.3166  143.0586  165.0758 C.ar    1  UNL1        0.0180
     18 C         139.2698  144.1201  165.2416 C.ar    1  UNL1        0.0220
     19 C         137.8906  143.9055  164.6922 C.ar    1  UNL1        0.0990
     20 N         137.5582  142.6296  163.9771 N.ar    1  UNL1       -0.2410
     21 C         138.6050  141.5682  163.8114 C.ar    1  UNL1        0.1136
     22 C         141.3892  140.2287  162.8241 C.3     1  UNL1        0.0975
     23 C         142.4865  142.2636  161.6387 C.3     1  UNL1        0.0018
     24 C         141.4414  141.1882  161.6723 C.3     1  UNL1        0.0218
@<TRIPOS>BOND
     1    23    24    1
     2    24    22    1
     3    22    15    1
     4    15    16    1
     5    16    17   ar
     6    17    18   ar
     7    18    19   ar
     8    19    20   ar
     9    20    21   ar
    10    15     1    1
    11     1     2    2
    12     1     3    1
    13     3     4   ar
    14     4     5   ar
    15     5     6   ar
    16     6     7   ar
    17     7     8   ar
    18     1     9    1
    19     9    10   ar
    20    10    11   ar
    21    11    12   ar
    22    12    13   ar
    23    13    14   ar
    24    21    16   ar
    25     8     3   ar
    26    14     9   ar
@<TRIPOS>MOLECULE
*****
 24 26 0 0 0
SMALL
GASTEIGER

@<TRIPOS>ATOM
      1 P         142.4305  142.1200  166.1341 P.3     1  UNL1        0.2266
      2 O         143.6260  142.6032  166.9004 O.2     1  UNL1       -0.2903
      3 C         141.8250  141.6024  167.4052 C.ar    1  UNL1        0.0498
      4 C         142.2806  140.2911  167.9734 C.ar    1  UNL1        0.0046
      5 C         141.6751  139.7736  169.2444 C.ar    1  UNL1        0.0002
      6 C         140.6140  140.5673  169.9472 C.ar    1  UNL1        0.0000
      7 C         140.1584  141.8786  169.3790 C.ar    1  UNL1        0.0002
      8 C         140.7639  142.3961  168.1080 C.ar    1  UNL1        0.0046
      9 C         143.0360  142.6375  164.8631 C.ar    1  UNL1        0.0498
     10 C         143.5387  141.6771  163.8264 C.ar    1  UNL1        0.0046
     11 C         144.1442  142.1946  162.5554 C.ar    1  UNL1        0.0002
     12 C         144.2470  143.6726  162.3210 C.ar    1  UNL1        0.0000
     13 C         143.7443  144.6330  163.3577 C.ar    1  UNL1        0.0002
     14 C         143.1388  144.1155  164.6288 C.ar    1  UNL1        0.0046
     15 N         141.2350  141.6367  165.3678 N.pl3   1  UNL1       -0.2602
     16 C         140.3225  142.6232  164.7012 C.ar    1  UNL1        0.0724
     17 C         139.6570  143.6957  165.5116 C.ar    1  UNL1        0.0180
     18 C         138.7446  144.6821  164.8450 C.ar    1  UNL1        0.0220
     19 C         138.4976  144.5959  163.3680 C.ar    1  UNL1        0.0990
     20 N         139.1631  143.5234  162.5576 N.ar    1  UNL1       -0.2410
     21 C         140.0755  142.5370  163.2242 C.ar    1  UNL1        0.1136
     22 C         140.9519  140.1670  165.2681 C.3     1  UNL1        0.0975
     23 C         138.8879  139.4544  166.6759 C.3     1  UNL1        0.0018
     24 C         139.5390  139.6686  165.3417 C.3     1  UNL1        0.0218
@<TRIPOS>BOND
     1    23    24    1
     2    24    22    1
     3    22    15    1
     4    15    16    1
     5    16    17   ar
     6    17    18   ar
     7    18    19   ar
     8    19    20   ar
     9    20    21   ar
    10    15     1    1
    11     1     2    2
    12     1     3    1
    13     3     4   ar
    14     4     5   ar
    15     5     6   ar
    16     6     7   ar
    17     7     8   ar
    18     1     9    1
    19     9    10   ar
    20    10    11   ar
    21    11    12   ar
    22    12    13   ar
    23    13    14   ar
    24    21    16   ar
    25     8     3   ar
    26    14     9   ar
@<TRIPOS>MOLECULE
*****
 24 26 0 0 0
SMALL
GASTEIGER

@<TRIPOS>ATOM
      1 P         140.8144  140.7676  167.1811 P.3     1  UNL1        0.2266
      2 O         140.1198  139.9091  168.1962 O.2     1  UNL1       -0.2903
      3 C         141.4362  141.5701  168.2854 C.ar    1  UNL1        0.0498
      4 C         142.7802  141.1839  168.8281 C.ar    1  UNL1        0.0046
      5 C         143.4020  141.9864  169.9323 C.ar    1  UNL1        0.0002
      6 C         142.6798  143.1751  170.4939 C.ar    1  UNL1        0.0000
      7 C         141.3359  143.5613  169.9512 C.ar    1  UNL1        0.0002
      8 C         140.7141  142.7588  168.8469 C.ar    1  UNL1        0.0046
      9 C         140.1926  139.9651  166.0769 C.ar    1  UNL1        0.0498
     10 C         138.7405  140.1434  165.7462 C.ar    1  UNL1        0.0046
     11 C         138.1187  139.3409  164.6419 C.ar    1  UNL1        0.0002
     12 C         138.9490  138.3601  163.8684 C.ar    1  UNL1        0.0000
     13 C         140.4012  138.1818  164.1991 C.ar    1  UNL1        0.0002
     14 C         141.0230  138.9843  165.3033 C.ar    1  UNL1        0.0046
     15 N         141.5091  141.6261  166.1661 N.pl3   1  UNL1       -0.2602
     16 C         140.7136  142.5621  165.3050 C.ar    1  UNL1        0.0724
     17 C         139.8314  143.5969  165.9382 C.ar    1  UNL1        0.0180
     18 C         139.0360  144.5327  165.0772 C.ar    1  UNL1        0.0220
     19 C         139.1227  144.4338  163.5829 C.ar    1  UNL1        0.0990
     20 N         140.0049  143.3990  162.9498 N.ar    1  UNL1       -0.2410
     21 C         140.8003  142.4631  163.8108 C.ar    1  UNL1        0.1136
     22 C         142.9991  141.5488  166.0120 C.3     1  UNL1        0.0975
     23 C         144.5644  142.9997  164.5305 C.3     1  UNL1        0.0018
     24 C         143.7977  142.8015  165.8044 C.3     1  UNL1        0.0218
@<TRIPOS>BOND
     1    23    24    1
     2    24    22    1
     3    22    15    1
     4    15    16    1
     5    16    17   ar
     6    17    18   ar
     7    18    19   ar
     8    19    20   ar
     9    20    21   ar
    10    15     1    1
    11     1     2    2
    12     1     3    1
    13     3     4   ar
    14     4     5   ar
    15     5     6   ar
    16     6     7   ar
    17     7     8   ar
    18     1     9    1
    19     9    10   ar
    20    10    11   ar
    21    11    12   ar
    22    12    13   ar
    23    13    14   ar
    24    21    16   ar
    25     8     3   ar
    26    14     9   ar
@<TRIPOS>MOLECULE
*****
 24 26 0 0 0
SMALL
GASTEIGER

@<TRIPOS>ATOM
      1 P         142.4657  142.1386  166.2068 P.3     1  UNL1        0.2266
      2 O         143.6516  142.6168  166.9909 O.2     1  UNL1       -0.2903
      3 C         143.0959  142.6464  164.9439 C.ar    1  UNL1        0.0498
      4 C         143.6784  141.6803  163.9554 C.ar    1  UNL1        0.0046
      5 C         144.3087  142.1881  162.6925 C.ar    1  UNL1        0.0002
      6 C         144.3564  143.6620  162.4181 C.ar    1  UNL1        0.0000
      7 C         143.7738  144.6281  163.4067 C.ar    1  UNL1        0.0002
      8 C         143.1436  144.1203  164.6696 C.ar    1  UNL1        0.0046
      9 C         141.8354  141.6307  167.4697 C.ar    1  UNL1        0.0498
     10 C         140.7735  142.4383  168.1553 C.ar    1  UNL1        0.0046
     11 C         140.1433  141.9305  169.4182 C.ar    1  UNL1        0.0002
     12 C         140.5750  140.6151  169.9955 C.ar    1  UNL1        0.0000
     13 C         141.6369  139.8075  169.3099 C.ar    1  UNL1        0.0002
     14 C         142.2671  140.3153  168.0470 C.ar    1  UNL1        0.0046
     15 N         141.2797  141.6603  165.4227 N.pl3   1  UNL1       -0.2602
     16 C         140.3854  142.6503  164.7368 C.ar    1  UNL1        0.0724
     17 C         139.6793  143.7038  165.5378 C.ar    1  UNL1        0.0180
     18 C         138.7851  144.6936  164.8519 C.ar    1  UNL1        0.0220
     19 C         138.5969  144.6300  163.3651 C.ar    1  UNL1        0.0990
     20 N         139.3030  143.5765  162.5642 N.ar    1  UNL1       -0.2410
     21 C         140.1972  142.5866  163.2500 C.ar    1  UNL1        0.1136
     22 C         140.9881  140.1923  165.3244 C.3     1  UNL1        0.0975
     23 C         138.9047  139.4442  166.6847 C.3     1  UNL1        0.0018
     24 C         139.5700  139.7049  165.3658 C.3     1  UNL1        0.0218
@<TRIPOS>BOND
     1    23    24    1
     2    24    22    1
     3    22    15    1
     4    15    16    1
     5    16    17   ar
     6    17    18   ar
     7    18    19   ar
     8    19    20   ar
     9    20    21   ar
    10    15     1    1
    11     1     2    2
    12     1     3    1
    13     3     4   ar
    14     4     5   ar
    15     5     6   ar
    16     6     7   ar
    17     7     8   ar
    18     1     9    1
    19     9    10   ar
    20    10    11   ar
    21    11    12   ar
    22    12    13   ar
    23    13    14   ar
    24    21    16   ar
    25     8     3   ar
    26    14     9   ar
@<TRIPOS>MOLECULE
*****
 24 26 0 0 0
SMALL
GASTEIGER

@<TRIPOS>ATOM
      1 P         140.8541  140.7385  167.2316 P.3     1  UNL1        0.2266
      2 O         140.1743  139.8817  168.2582 O.2     1  UNL1       -0.2903
      3 C         140.2239  139.9281  166.1379 C.ar    1  UNL1        0.0498
      4 C         141.0525  138.9552  165.3526 C.ar    1  UNL1        0.0046
      5 C         140.4222  138.1449  164.2589 C.ar    1  UNL1        0.0002
      6 C         138.9634  138.3075  163.9506 C.ar    1  UNL1        0.0000
      7 C         138.1347  139.2804  164.7359 C.ar    1  UNL1        0.0002
      8 C         138.7650  140.0907  165.8296 C.ar    1  UNL1        0.0046
      9 C         141.4844  141.5488  168.3253 C.ar    1  UNL1        0.0498
     10 C         142.8311  141.1646  168.8625 C.ar    1  UNL1        0.0046
     11 C         143.4614  141.9750  169.9562 C.ar    1  UNL1        0.0002
     12 C         142.7449  143.1695  170.5127 C.ar    1  UNL1        0.0000
     13 C         141.3981  143.5536  169.9755 C.ar    1  UNL1        0.0002
     14 C         140.7679  142.7433  168.8818 C.ar    1  UNL1        0.0046
     15 N         141.5339  141.5952  166.2051 N.pl3   1  UNL1       -0.2602
     16 C         140.7237  142.5146  165.3399 C.ar    1  UNL1        0.0724
     17 C         139.8455  143.5557  165.9682 C.ar    1  UNL1        0.0180
     18 C         139.0354  144.4749  165.1030 C.ar    1  UNL1        0.0220
     19 C         139.1034  144.3530  163.6095 C.ar    1  UNL1        0.0990
     20 N         139.9816  143.3119  162.9812 N.ar    1  UNL1       -0.2410
     21 C         140.7917  142.3927  163.8464 C.ar    1  UNL1        0.1136
     22 C         143.0239  141.5327  166.0437 C.3     1  UNL1        0.0975
     23 C         144.5570  143.0018  164.5466 C.3     1  UNL1        0.0018
     24 C         143.8087  142.7931  165.8296 C.3     1  UNL1        0.0218
@<TRIPOS>BOND
     1    23    24    1
     2    24    22    1
     3    22    15    1
     4    15    16    1
     5    16    17   ar
     6    17    18   ar
     7    18    19   ar
     8    19    20   ar
     9    20    21   ar
    10    15     1    1
    11     1     2    2
    12     1     3    1
    13     3     4   ar
    14     4     5   ar
    15     5     6   ar
    16     6     7   ar
    17     7     8   ar
    18     1     9    1
    19     9    10   ar
    20    10    11   ar
    21    11    12   ar
    22    12    13   ar
    23    13    14   ar
    24    21    16   ar
    25     8     3   ar
    26    14     9   ar
@<TRIPOS>MOLECULE
*****
 24 26 0 0 0
SMALL
GASTEIGER

@<TRIPOS>ATOM
      1 P         140.6212  141.9394  166.9844 P.3     1  UNL1        0.2266
      2 O         139.8637  142.8081  167.9445 O.2     1  UNL1       -0.2903
      3 C         139.8430  142.5228  165.8425 C.ar    1  UNL1        0.0498
      4 C         138.8139  141.6925  165.1344 C.ar    1  UNL1        0.0046
      5 C         138.0357  142.2759  163.9925 C.ar    1  UNL1        0.0002
      6 C         138.2866  143.6897  163.5587 C.ar    1  UNL1        0.0000
      7 C         139.3157  144.5200  164.2667 C.ar    1  UNL1        0.0002
      8 C         140.0939  143.9366  165.4087 C.ar    1  UNL1        0.0046
      9 C         141.3994  141.3560  168.1264 C.ar    1  UNL1        0.0498
     10 C         140.9206  140.1029  168.7976 C.ar    1  UNL1        0.0046
     11 C         141.6988  139.5195  169.9396 C.ar    1  UNL1        0.0002
     12 C         142.9558  140.1891  170.4102 C.ar    1  UNL1        0.0000
     13 C         143.4346  141.4421  169.7390 C.ar    1  UNL1        0.0002
     14 C         142.6564  142.0256  168.5971 C.ar    1  UNL1        0.0046
     15 N         141.3786  141.0707  166.0244 N.pl3   1  UNL1       -0.2602
     16 C         142.3727  141.6831  165.0827 C.ar    1  UNL1        0.0724
     17 C         143.5447  142.4479  165.6225 C.ar    1  UNL1        0.0180
     18 C         144.5386  143.0603  164.6807 C.ar    1  UNL1        0.0220
     19 C         144.3606  142.9079  163.1991 C.ar    1  UNL1        0.0990
     20 N         143.1886  142.1431  162.6593 N.ar    1  UNL1       -0.2410
     21 C         142.1946  141.5308  163.6011 C.ar    1  UNL1        0.1136
     22 C         141.1420  139.5896  166.0062 C.3     1  UNL1        0.0975
     23 C         143.4222  138.5112  166.6293 C.3     1  UNL1        0.0018
     24 C         142.2687  138.6541  165.6812 C.3     1  UNL1        0.0218
@<TRIPOS>BOND
     1    23    24    1
     2    24    22    1
     3    22    15    1
     4    15    16    1
     5    16    17   ar
     6    17    18   ar
     7    18    19   ar
     8    19    20   ar
     9    20    21   ar
    10    15     1    1
    11     1     2    2
    12     1     3    1
    13     3     4   ar
    14     4     5   ar
    15     5     6   ar
    16     6     7   ar
    17     7     8   ar
    18     1     9    1
    19     9    10   ar
    20    10    11   ar
    21    11    12   ar
    22    12    13   ar
    23    13    14   ar
    24    21    16   ar
    25     8     3   ar
    26    14     9   ar
