@<TRIPOS>MOLECULE
*****
 29 31 0 0 0
SMALL
GASTEIGER

@<TRIPOS>ATOM
      1 C         138.8403  139.5654  165.9254 C.ar    1  UNL1        0.0193
      2 C         137.8195  138.7898  166.7042 C.ar    1  UNL1        0.1002
      3 N         137.7967  138.8730  168.2017 N.ar    1  UNL1       -0.2296
      4 C         138.7946  139.7318  168.9204 C.ar    1  UNL1        0.1254
      5 N         138.7718  139.8150  170.4179 N.pl3   1  UNL1       -0.3426
      6 C         139.8154  140.5074  168.1416 C.ar    1  UNL1        0.0327
      7 C         139.8382  140.4242  166.6441 C.ar    1  UNL1        0.0044
      8 H         138.1019  139.3059  170.9291 H       1  UNL1        0.1437
      9 H         139.4268  140.3786  170.8897 H       1  UNL1        0.1437
     10 C         138.9087  139.3159  161.4328 C.ar    1  UNL1        0.1219
     11 C         138.0303  140.3225  162.1148 C.ar    1  UNL1        0.0199
     12 C         138.0075  140.4057  163.6123 C.ar    1  UNL1        0.0014
     13 C         138.8631  139.4823  164.4279 C.ar    1  UNL1        0.0016
     14 C         139.7415  138.4756  163.7459 C.ar    1  UNL1        0.0014
     15 C         139.7643  138.3925  162.2484 C.ar    1  UNL1        0.0199
     16 S         138.9315  139.2327  159.9353 S.O2    1  UNL1        0.0603
     17 O         137.5128  139.7174  159.8868 O.2     1  UNL1       -0.1530
     18 O         140.3502  138.7480  159.9838 O.2     1  UNL1       -0.1530
     19 C         138.7709  140.3901  157.6149 C.3     1  UNL1        0.1102
     20 N         138.9543  139.1495  158.4378 N.3     1  UNL1       -0.1779
     21 H         139.8586  138.7553  158.1785 H       1  UNL1        0.1488
     22 C         140.8133  141.3662  168.8604 C.ar    1  UNL1        0.0221
     23 C         142.2229  140.8864  169.0418 C.ar    1  UNL1        0.0064
     24 C         143.2209  141.7451  169.7605 C.ar    1  UNL1        0.0577
     25 C         142.8093  143.0838  170.2978 C.ar    1  UNL1        0.2250
     26 N         141.3998  143.5637  170.1164 N.ar    1  UNL1       -0.2101
     27 C         140.4018  142.7048  169.3976 C.ar    1  UNL1        0.1021
     28 O         143.8073  143.9425  171.0165 O.3     1  UNL1       -0.4561
     29 C         145.2699  143.8073  170.7125 C.3     1  UNL1        0.2542
@<TRIPOS>BOND
     1    19    20    1
     2    20    16    1
     3    16    17    2
     4    16    18    2
     5    16    10    1
     6    10    11   ar
     7    11    12   ar
     8    12    13   ar
     9    13     1    1
    10     1     2   ar
    11     2     3   ar
    12     3     4   ar
    13     4     5    1
    14     4     6   ar
    15     6    22    1
    16    22    23   ar
    17    23    24   ar
    18    24    25   ar
    19    25    28    1
    20    28    29    1
    21    25    26   ar
    22    26    27   ar
    23     6     7   ar
    24    13    14   ar
    25    14    15   ar
    26    15    10   ar
    27     7     1   ar
    28    27    22   ar
    29    20    21    1
    30     5     8    1
    31     5     9    1
@<TRIPOS>MOLECULE
*****
 29 31 0 0 0
SMALL
GASTEIGER

@<TRIPOS>ATOM
      1 C         140.4506  139.8782  165.9271 C.ar    1  UNL1        0.0193
      2 C         139.1430  139.1819  166.1620 C.ar    1  UNL1        0.1002
      3 N         138.5276  138.3545  165.0727 N.ar    1  UNL1       -0.2296
      4 C         139.2198  138.2233  163.7485 C.ar    1  UNL1        0.1254
      5 N         138.6043  137.3959  162.6592 N.pl3   1  UNL1       -0.3426
      6 C         140.5274  138.9196  163.5135 C.ar    1  UNL1        0.0327
      7 C         141.1428  139.7471  164.6028 C.ar    1  UNL1        0.0044
      8 H         137.7461  136.9389  162.8134 H       1  UNL1        0.1437
      9 H         139.0586  137.3098  161.7900 H       1  UNL1        0.1437
     10 C         142.2970  142.3606  169.1950 C.ar    1  UNL1        0.1219
     11 C         142.9375  141.0688  168.7816 C.ar    1  UNL1        0.0199
     12 C         142.3220  140.2413  167.6923 C.ar    1  UNL1        0.0014
     13 C         141.0661  140.7057  167.0164 C.ar    1  UNL1        0.0016
     14 C         140.4256  141.9975  167.4298 C.ar    1  UNL1        0.0014
     15 C         141.0410  142.8249  168.5191 C.ar    1  UNL1        0.0199
     16 S         142.9124  143.1880  170.2843 S.O2    1  UNL1        0.0603
     17 O         141.5596  143.7335  170.6342 O.2     1  UNL1       -0.1530
     18 O         144.2652  142.6426  169.9343 O.2     1  UNL1       -0.1530
     19 C         144.9551  144.4627  171.2602 C.3     1  UNL1        0.1102
     20 N         143.5278  144.0155  171.3736 N.3     1  UNL1       -0.1779
     21 H         142.9608  144.8591  171.4586 H       1  UNL1        0.1488
     22 C         141.2196  138.7885  162.1893 C.ar    1  UNL1        0.0221
     23 C         142.3723  137.8409  162.0361 C.ar    1  UNL1        0.0064
     24 C         143.0645  137.7098  160.7119 C.ar    1  UNL1        0.0577
     25 C         142.6041  138.5262  159.5408 C.ar    1  UNL1        0.2250
     26 N         141.4515  139.4738  159.6939 N.ar    1  UNL1       -0.2101
     27 C         140.7592  139.6050  161.0182 C.ar    1  UNL1        0.1021
     28 O         143.2964  138.3951  158.2166 O.3     1  UNL1       -0.4561
     29 C         142.7254  137.4997  157.1572 C.3     1  UNL1        0.2542
@<TRIPOS>BOND
     1    19    20    1
     2    20    16    1
     3    16    17    2
     4    16    18    2
     5    16    10    1
     6    10    11   ar
     7    11    12   ar
     8    12    13   ar
     9    13     1    1
    10     1     2   ar
    11     2     3   ar
    12     3     4   ar
    13     4     5    1
    14     4     6   ar
    15     6    22    1
    16    22    23   ar
    17    23    24   ar
    18    24    25   ar
    19    25    28    1
    20    28    29    1
    21    25    26   ar
    22    26    27   ar
    23     6     7   ar
    24    13    14   ar
    25    14    15   ar
    26    15    10   ar
    27     7     1   ar
    28    27    22   ar
    29    20    21    1
    30     5     8    1
    31     5     9    1
@<TRIPOS>MOLECULE
*****
 29 31 0 0 0
SMALL
GASTEIGER

@<TRIPOS>ATOM
      1 C         139.1167  139.8651  163.1618 C.ar    1  UNL1        0.0193
      2 C         137.7694  139.6402  162.5419 C.ar    1  UNL1        0.1002
      3 N         137.6391  139.5250  161.0520 N.ar    1  UNL1       -0.2296
      4 C         138.8561  139.6347  160.1820 C.ar    1  UNL1        0.1254
      5 N         138.7258  139.5196  158.6922 N.pl3   1  UNL1       -0.3426
      6 C         140.2034  139.8596  160.8020 C.ar    1  UNL1        0.0327
      7 C         140.3336  139.9747  162.2918 C.ar    1  UNL1        0.0044
      8 H         137.8416  139.3720  158.2853 H       1  UNL1        0.1437
      9 H         139.5246  139.5916  158.1212 H       1  UNL1        0.1437
     10 C         139.5075  140.2105  167.6315 C.ar    1  UNL1        0.1219
     11 C         140.3127  141.1055  166.7368 C.ar    1  UNL1        0.0199
     12 C         140.1825  140.9904  165.2469 C.ar    1  UNL1        0.0014
     13 C         139.2469  139.9802  164.6517 C.ar    1  UNL1        0.0016
     14 C         138.4417  139.0852  165.5464 C.ar    1  UNL1        0.0014
     15 C         138.5719  139.2004  167.0363 C.ar    1  UNL1        0.0199
     16 S         139.6377  140.3257  169.1214 S.O2    1  UNL1        0.0603
     17 O         140.8916  141.1310  168.9495 O.2     1  UNL1       -0.1530
     18 O         138.3839  139.5205  169.2933 O.2     1  UNL1       -0.1530
     19 C         141.0219  141.0023  171.2133 C.3     1  UNL1        0.1102
     20 N         139.7680  140.4409  170.6113 N.3     1  UNL1       -0.1779
     21 H         138.9990  141.0306  170.9294 H       1  UNL1        0.1488
     22 C         141.4204  139.9693  159.9320 C.ar    1  UNL1        0.0221
     23 C         141.8870  141.3149  159.4612 C.ar    1  UNL1        0.0064
     24 C         143.1040  141.4247  158.5913 C.ar    1  UNL1        0.0577
     25 C         143.8545  140.1887  158.1920 C.ar    1  UNL1        0.2250
     26 N         143.3879  138.8431  158.6628 N.ar    1  UNL1       -0.2101
     27 C         142.1708  138.7334  159.5328 C.ar    1  UNL1        0.1021
     28 O         145.0715  140.2985  157.3221 O.3     1  UNL1       -0.4561
     29 C         145.5573  141.6465  156.8786 C.3     1  UNL1        0.2542
@<TRIPOS>BOND
     1    19    20    1
     2    20    16    1
     3    16    17    2
     4    16    18    2
     5    16    10    1
     6    10    11   ar
     7    11    12   ar
     8    12    13   ar
     9    13     1    1
    10     1     2   ar
    11     2     3   ar
    12     3     4   ar
    13     4     5    1
    14     4     6   ar
    15     6    22    1
    16    22    23   ar
    17    23    24   ar
    18    24    25   ar
    19    25    28    1
    20    28    29    1
    21    25    26   ar
    22    26    27   ar
    23     6     7   ar
    24    13    14   ar
    25    14    15   ar
    26    15    10   ar
    27     7     1   ar
    28    27    22   ar
    29    20    21    1
    30     5     8    1
    31     5     9    1
@<TRIPOS>MOLECULE
*****
 29 31 0 0 0
SMALL
GASTEIGER

@<TRIPOS>ATOM
      1 C         143.0544  138.8039  165.9943 C.ar    1  UNL1        0.0193
      2 C         143.7650  137.7394  166.7766 C.ar    1  UNL1        0.1002
      3 N         143.7156  137.7513  168.2758 N.ar    1  UNL1       -0.2296
      4 C         142.9556  138.8275  168.9926 C.ar    1  UNL1        0.1254
      5 N         142.9061  138.8394  170.4918 N.pl3   1  UNL1       -0.3426
      6 C         142.2450  139.8920  168.2104 C.ar    1  UNL1        0.0327
      7 C         142.2944  139.8801  166.7112 C.ar    1  UNL1        0.0044
      8 H         143.3725  138.1407  171.0052 H       1  UNL1        0.1437
      9 H         142.4073  139.5458  170.9623 H       1  UNL1        0.1437
     10 C         143.2027  138.7684  161.4969 C.ar    1  UNL1        0.1219
     11 C         144.2520  139.5044  162.2761 C.ar    1  UNL1        0.0199
     12 C         144.2026  139.5162  163.7753 C.ar    1  UNL1        0.0014
     13 C         143.1039  138.7920  164.4952 C.ar    1  UNL1        0.0016
     14 C         142.0546  138.0560  163.7160 C.ar    1  UNL1        0.0014
     15 C         142.1040  138.0441  162.2168 C.ar    1  UNL1        0.0199
     16 S         143.2522  138.7565  159.9978 S.O2    1  UNL1        0.0603
     17 O         143.4387  140.2449  159.9922 O.2     1  UNL1       -0.1530
     18 O         143.0656  137.2682  160.0034 O.2     1  UNL1       -0.1530
     19 C         142.1238  138.2488  157.7133 C.3     1  UNL1        0.1102
     20 N         143.3016  138.7447  158.4987 N.3     1  UNL1       -0.1779
     21 H         143.4697  139.7060  158.2020 H       1  UNL1        0.1488
     22 C         141.4849  140.9683  168.9272 C.ar    1  UNL1        0.0221
     23 C         142.0597  142.3499  169.0317 C.ar    1  UNL1        0.0064
     24 C         141.2997  143.4262  169.7485 C.ar    1  UNL1        0.0577
     25 C         139.9648  143.1210  170.3609 C.ar    1  UNL1        0.2250
     26 N         139.3899  141.7395  170.2564 N.ar    1  UNL1       -0.2101
     27 C         140.1500  140.6631  169.5395 C.ar    1  UNL1        0.1021
     28 O         139.2048  144.1973  171.0777 O.3     1  UNL1       -0.4561
     29 C         139.4582  145.6392  170.7509 C.3     1  UNL1        0.2542
@<TRIPOS>BOND
     1    19    20    1
     2    20    16    1
     3    16    17    2
     4    16    18    2
     5    16    10    1
     6    10    11   ar
     7    11    12   ar
     8    12    13   ar
     9    13     1    1
    10     1     2   ar
    11     2     3   ar
    12     3     4   ar
    13     4     5    1
    14     4     6   ar
    15     6    22    1
    16    22    23   ar
    17    23    24   ar
    18    24    25   ar
    19    25    28    1
    20    28    29    1
    21    25    26   ar
    22    26    27   ar
    23     6     7   ar
    24    13    14   ar
    25    14    15   ar
    26    15    10   ar
    27     7     1   ar
    28    27    22   ar
    29    20    21    1
    30     5     8    1
    31     5     9    1
@<TRIPOS>MOLECULE
*****
 29 31 0 0 0
SMALL
GASTEIGER

@<TRIPOS>ATOM
      1 C         138.9345  141.6511  163.3952 C.ar    1  UNL1        0.0193
      2 C         138.0584  142.8211  163.0583 C.ar    1  UNL1        0.1002
      3 N         137.8004  143.1763  161.6240 N.ar    1  UNL1       -0.2296
      4 C         138.4183  142.3616  160.5266 C.ar    1  UNL1        0.1254
      5 N         138.1603  142.7169  159.0923 N.pl3   1  UNL1       -0.3426
      6 C         139.2944  141.1916  160.8636 C.ar    1  UNL1        0.0327
      7 C         139.5525  140.8363  162.2979 C.ar    1  UNL1        0.0044
      8 H         137.5853  143.4848  158.8712 H       1  UNL1        0.1437
      9 H         138.5659  142.1821  158.3721 H       1  UNL1        0.1437
     10 C         139.7087  140.5853  167.6981 C.ar    1  UNL1        0.1219
     11 C         138.9077  139.6617  166.8291 C.ar    1  UNL1        0.0199
     12 C         138.6496  140.0169  165.3948 C.ar    1  UNL1        0.0014
     13 C         139.1926  141.2958  164.8295 C.ar    1  UNL1        0.0016
     14 C         139.9936  142.2194  165.6985 C.ar    1  UNL1        0.0014
     15 C         140.2517  141.8642  167.1328 C.ar    1  UNL1        0.0199
     16 S         139.9668  140.2301  169.1324 S.O2    1  UNL1        0.0603
     17 O         141.3057  140.9022  169.0580 O.2     1  UNL1       -0.1530
     18 O         138.6279  139.5579  169.2068 O.2     1  UNL1       -0.1530
     19 C         141.1294  140.7327  171.4008 C.3     1  UNL1        0.1102
     20 N         140.2249  139.8748  170.5667 N.3     1  UNL1       -0.1779
     21 H         139.3185  139.8610  171.0343 H       1  UNL1        0.1488
     22 C         139.9124  140.3768  159.7662 C.ar    1  UNL1        0.0221
     23 C         141.2610  140.7483  159.2247 C.ar    1  UNL1        0.0064
     24 C         141.8791  139.9335  158.1274 C.ar    1  UNL1        0.0577
     25 C         141.1485  138.7472  157.5715 C.ar    1  UNL1        0.2250
     26 N         139.7999  138.3757  158.1130 N.ar    1  UNL1       -0.2101
     27 C         139.1818  139.1905  159.2104 C.ar    1  UNL1        0.1021
     28 O         141.7665  137.9324  156.4742 O.3     1  UNL1       -0.4561
     29 C         142.9890  137.1080  156.7496 C.3     1  UNL1        0.2542
@<TRIPOS>BOND
     1    19    20    1
     2    20    16    1
     3    16    17    2
     4    16    18    2
     5    16    10    1
     6    10    11   ar
     7    11    12   ar
     8    12    13   ar
     9    13     1    1
    10     1     2   ar
    11     2     3   ar
    12     3     4   ar
    13     4     5    1
    14     4     6   ar
    15     6    22    1
    16    22    23   ar
    17    23    24   ar
    18    24    25   ar
    19    25    28    1
    20    28    29    1
    21    25    26   ar
    22    26    27   ar
    23     6     7   ar
    24    13    14   ar
    25    14    15   ar
    26    15    10   ar
    27     7     1   ar
    28    27    22   ar
    29    20    21    1
    30     5     8    1
    31     5     9    1
@<TRIPOS>MOLECULE
*****
 29 31 0 0 0
SMALL
GASTEIGER

@<TRIPOS>ATOM
      1 C         139.2719  141.9261  163.4067 C.ar    1  UNL1        0.0193
      2 C         137.9095  142.3667  162.9597 C.ar    1  UNL1        0.1002
      3 N         137.6907  142.8052  161.5421 N.ar    1  UNL1       -0.2296
      4 C         138.8342  142.8032  160.5714 C.ar    1  UNL1        0.1254
      5 N         138.6153  143.2418  159.1537 N.pl3   1  UNL1       -0.3426
      6 C         140.1965  142.3627  161.0183 C.ar    1  UNL1        0.0327
      7 C         140.4154  141.9241  162.4360 C.ar    1  UNL1        0.0044
      8 H         137.7211  143.5310  158.8604 H       1  UNL1        0.1437
      9 H         139.3659  143.2405  158.5166 H       1  UNL1        0.1437
     10 C         139.9284  140.6104  167.6597 C.ar    1  UNL1        0.1219
     11 C         139.2496  139.6924  166.6869 C.ar    1  UNL1        0.0199
     12 C         139.0307  140.1309  165.2693 C.ar    1  UNL1        0.0014
     13 C         139.4907  141.4875  164.8244 C.ar    1  UNL1        0.0016
     14 C         140.1696  142.4056  165.7971 C.ar    1  UNL1        0.0014
     15 C         140.3884  141.9670  167.2148 C.ar    1  UNL1        0.0199
     16 S         140.1473  140.1718  169.0773 S.O2    1  UNL1        0.0603
     17 O         141.5621  140.6658  169.0118 O.2     1  UNL1       -0.1530
     18 O         138.7325  139.6778  169.1429 O.2     1  UNL1       -0.1530
     19 C         141.0373  140.6546  171.4700 C.3     1  UNL1        0.1102
     20 N         140.3661  139.7333  170.4950 N.3     1  UNL1       -0.1779
     21 H         139.4475  139.5148  170.8808 H       1  UNL1        0.1488
     22 C         141.3401  142.3606  160.0476 C.ar    1  UNL1        0.0221
     23 C         141.6152  141.1435  159.2152 C.ar    1  UNL1        0.0064
     24 C         142.7587  141.1414  158.2446 C.ar    1  UNL1        0.0577
     25 C         143.6273  142.3565  158.1062 C.ar    1  UNL1        0.2250
     26 N         143.3522  143.5737  158.9385 N.ar    1  UNL1       -0.2101
     27 C         142.2086  143.5758  159.9092 C.ar    1  UNL1        0.1021
     28 O         144.7708  142.3545  157.1355 O.3     1  UNL1       -0.4561
     29 C         145.4469  141.0647  156.7757 C.3     1  UNL1        0.2542
@<TRIPOS>BOND
     1    19    20    1
     2    20    16    1
     3    16    17    2
     4    16    18    2
     5    16    10    1
     6    10    11   ar
     7    11    12   ar
     8    12    13   ar
     9    13     1    1
    10     1     2   ar
    11     2     3   ar
    12     3     4   ar
    13     4     5    1
    14     4     6   ar
    15     6    22    1
    16    22    23   ar
    17    23    24   ar
    18    24    25   ar
    19    25    28    1
    20    28    29    1
    21    25    26   ar
    22    26    27   ar
    23     6     7   ar
    24    13    14   ar
    25    14    15   ar
    26    15    10   ar
    27     7     1   ar
    28    27    22   ar
    29    20    21    1
    30     5     8    1
    31     5     9    1
@<TRIPOS>MOLECULE
*****
 29 31 0 0 0
SMALL
GASTEIGER

@<TRIPOS>ATOM
      1 C         139.2456  140.5507  161.2063 C.ar    1  UNL1        0.0193
      2 C         138.3566  141.7048  160.8490 C.ar    1  UNL1        0.1002
      3 N         137.7023  142.5109  161.9316 N.ar    1  UNL1       -0.2296
      4 C         137.9371  142.1629  163.3717 C.ar    1  UNL1        0.1254
      5 N         137.2829  142.9691  164.4543 N.pl3   1  UNL1       -0.3426
      6 C         138.8262  141.0089  163.7290 C.ar    1  UNL1        0.0327
      7 C         139.4804  140.2028  162.6464 C.ar    1  UNL1        0.0044
      8 H         136.6993  143.7265  164.2197 H       1  UNL1        0.1437
      9 H         137.4370  142.7407  165.3995 H       1  UNL1        0.1437
     10 C         141.2084  138.1324  157.9584 C.ar    1  UNL1        0.1219
     11 C         139.7521  138.4780  157.8601 C.ar    1  UNL1        0.0199
     12 C         139.0978  139.2841  158.9428 C.ar    1  UNL1        0.0014
     13 C         139.8999  139.7446  160.1237 C.ar    1  UNL1        0.0016
     14 C         141.3562  139.3991  160.2219 C.ar    1  UNL1        0.0014
     15 C         142.0104  138.5930  159.1392 C.ar    1  UNL1        0.0199
     16 S         141.8626  137.3263  156.8757 S.O2    1  UNL1        0.0603
     17 O         143.2039  137.5795  157.4977 O.2     1  UNL1       -0.1530
     18 O         140.5213  137.0731  156.2537 O.2     1  UNL1       -0.1530
     19 C         143.9909  136.2478  155.8475 C.3     1  UNL1        0.1102
     20 N         142.5169  136.5202  155.7930 N.3     1  UNL1       -0.1779
     21 H         142.0502  135.6134  155.7783 H       1  UNL1        0.1488
     22 C         139.0610  140.6609  165.1692 C.ar    1  UNL1        0.0221
     23 C         138.2520  139.5789  165.8208 C.ar    1  UNL1        0.0064
     24 C         138.4868  139.2309  167.2608 C.ar    1  UNL1        0.0577
     25 C         139.5307  139.9650  168.0493 C.ar    1  UNL1        0.2250
     26 N         140.3397  141.0470  167.3976 N.ar    1  UNL1       -0.2101
     27 C         140.1048  141.3950  165.9575 C.ar    1  UNL1        0.1021
     28 O         139.7655  139.6170  169.4893 O.3     1  UNL1       -0.4561
     29 C         141.1067  139.8677  170.1124 C.3     1  UNL1        0.2542
@<TRIPOS>BOND
     1    19    20    1
     2    20    16    1
     3    16    17    2
     4    16    18    2
     5    16    10    1
     6    10    11   ar
     7    11    12   ar
     8    12    13   ar
     9    13     1    1
    10     1     2   ar
    11     2     3   ar
    12     3     4   ar
    13     4     5    1
    14     4     6   ar
    15     6    22    1
    16    22    23   ar
    17    23    24   ar
    18    24    25   ar
    19    25    28    1
    20    28    29    1
    21    25    26   ar
    22    26    27   ar
    23     6     7   ar
    24    13    14   ar
    25    14    15   ar
    26    15    10   ar
    27     7     1   ar
    28    27    22   ar
    29    20    21    1
    30     5     8    1
    31     5     9    1
@<TRIPOS>MOLECULE
*****
 29 31 0 0 0
SMALL
GASTEIGER

@<TRIPOS>ATOM
      1 C         140.4077  144.4254  157.4539 C.ar    1  UNL1        0.0193
      2 C         139.3758  143.4614  156.9482 C.ar    1  UNL1        0.1002
      3 N         138.3418  143.9183  155.9622 N.ar    1  UNL1       -0.2296
      4 C         138.3398  145.3393  155.4819 C.ar    1  UNL1        0.1254
      5 N         137.3058  145.7963  154.4960 N.pl3   1  UNL1       -0.3426
      6 C         139.3717  146.3034  155.9876 C.ar    1  UNL1        0.0327
      7 C         140.4056  145.8464  156.9735 C.ar    1  UNL1        0.0044
      8 H         136.6285  145.1635  154.1641 H       1  UNL1        0.1437
      9 H         137.3045  146.7289  154.1807 H       1  UNL1        0.1437
     10 C         143.5096  143.0546  160.4117 C.ar    1  UNL1        0.1219
     11 C         142.3076  143.8172  160.8846 C.ar    1  UNL1        0.0199
     12 C         141.2736  144.2741  159.8987 C.ar    1  UNL1        0.0014
     13 C         141.4417  143.9685  158.4398 C.ar    1  UNL1        0.0016
     14 C         142.6437  143.2060  157.9669 C.ar    1  UNL1        0.0014
     15 C         143.6776  142.7490  158.9529 C.ar    1  UNL1        0.0199
     16 S         144.5435  142.5977  161.3977 S.O2    1  UNL1        0.0603
     17 O         144.5734  143.9701  162.0025 O.2     1  UNL1       -0.1530
     18 O         144.5137  141.2253  160.7930 O.2     1  UNL1       -0.1530
     19 C         145.2596  142.1221  163.8494 C.3     1  UNL1        0.1102
     20 N         145.5775  142.1407  162.3837 N.3     1  UNL1       -0.1779
     21 H         145.8299  141.1869  162.1250 H       1  UNL1        0.1488
     22 C         139.3697  147.7244  155.5073 C.ar    1  UNL1        0.0221
     23 C         140.1523  148.1042  154.2853 C.ar    1  UNL1        0.0064
     24 C         140.1503  149.5252  153.8049 C.ar    1  UNL1        0.0577
     25 C         139.3657  150.5665  154.5466 C.ar    1  UNL1        0.2250
     26 N         138.5830  150.1868  155.7686 N.ar    1  UNL1       -0.2101
     27 C         138.5850  148.7657  156.2489 C.ar    1  UNL1        0.1021
     28 O         139.3637  151.9875  154.0663 O.3     1  UNL1       -0.4561
     29 C         138.6824  152.3428  152.7780 C.3     1  UNL1        0.2542
@<TRIPOS>BOND
     1    19    20    1
     2    20    16    1
     3    16    17    2
     4    16    18    2
     5    16    10    1
     6    10    11   ar
     7    11    12   ar
     8    12    13   ar
     9    13     1    1
    10     1     2   ar
    11     2     3   ar
    12     3     4   ar
    13     4     5    1
    14     4     6   ar
    15     6    22    1
    16    22    23   ar
    17    23    24   ar
    18    24    25   ar
    19    25    28    1
    20    28    29    1
    21    25    26   ar
    22    26    27   ar
    23     6     7   ar
    24    13    14   ar
    25    14    15   ar
    26    15    10   ar
    27     7     1   ar
    28    27    22   ar
    29    20    21    1
    30     5     8    1
    31     5     9    1
@<TRIPOS>MOLECULE
*****
 29 31 0 0 0
SMALL
GASTEIGER

@<TRIPOS>ATOM
      1 C         141.0255  143.5587  163.5029 C.ar    1  UNL1        0.0193
      2 C         140.9751  145.0174  163.1572 C.ar    1  UNL1        0.1002
      3 N         140.5736  145.4478  161.7775 N.ar    1  UNL1       -0.2296
      4 C         140.2226  144.4194  160.7435 C.ar    1  UNL1        0.1254
      5 N         139.8211  144.8497  159.3638 N.pl3   1  UNL1       -0.3426
      6 C         140.2730  142.9607  161.0892 C.ar    1  UNL1        0.0327
      7 C         140.6744  142.5304  162.4690 C.ar    1  UNL1        0.0044
      8 H         139.7880  145.8071  159.1368 H       1  UNL1        0.1437
      9 H         139.5907  144.1747  158.6851 H       1  UNL1        0.1437
     10 C         142.2299  142.2677  167.6421 C.ar    1  UNL1        0.1219
     11 C         143.2616  142.3686  166.5580 C.ar    1  UNL1        0.0199
     12 C         142.8602  142.7990  165.1783 C.ar    1  UNL1        0.0014
     13 C         141.4270  143.1284  164.8827 C.ar    1  UNL1        0.0016
     14 C         140.3953  143.0275  165.9668 C.ar    1  UNL1        0.0014
     15 C         140.7967  142.5972  167.3465 C.ar    1  UNL1        0.0199
     16 S         142.6314  141.8374  169.0218 S.O2    1  UNL1        0.0603
     17 O         141.4165  140.9612  169.1020 O.2     1  UNL1       -0.1530
     18 O         143.8462  142.7136  168.9416 O.2     1  UNL1       -0.1530
     19 C         142.0174  140.7986  171.3226 C.3     1  UNL1        0.1102
     20 N         143.0329  141.4071  170.4015 N.3     1  UNL1       -0.1779
     21 H         143.7786  140.7201  170.2904 H       1  UNL1        0.1488
     22 C         139.9219  141.9322  160.0552 C.ar    1  UNL1        0.0221
     23 C         140.9936  141.3511  159.1813 C.ar    1  UNL1        0.0064
     24 C         140.6426  140.3227  158.1473 C.ar    1  UNL1        0.0577
     25 C         139.2198  139.8753  157.9873 C.ar    1  UNL1        0.2250
     26 N         138.1481  140.4564  158.8612 N.ar    1  UNL1       -0.2101
     27 C         138.4991  141.4849  159.8952 C.ar    1  UNL1        0.1021
     28 O         138.8688  138.8469  156.9533 O.3     1  UNL1       -0.4561
     29 C         139.7556  137.6543  156.7504 C.3     1  UNL1        0.2542
@<TRIPOS>BOND
     1    19    20    1
     2    20    16    1
     3    16    17    2
     4    16    18    2
     5    16    10    1
     6    10    11   ar
     7    11    12   ar
     8    12    13   ar
     9    13     1    1
    10     1     2   ar
    11     2     3   ar
    12     3     4   ar
    13     4     5    1
    14     4     6   ar
    15     6    22    1
    16    22    23   ar
    17    23    24   ar
    18    24    25   ar
    19    25    28    1
    20    28    29    1
    21    25    26   ar
    22    26    27   ar
    23     6     7   ar
    24    13    14   ar
    25    14    15   ar
    26    15    10   ar
    27     7     1   ar
    28    27    22   ar
    29    20    21    1
    30     5     8    1
    31     5     9    1
