@<TRIPOS>MOLECULE
*****
 34 38 0 0 0
SMALL
GASTEIGER

@<TRIPOS>ATOM
      1 C         141.2116  142.0726  166.1315 C.ar    1  UNL1        0.0604
      2 C         139.8753  142.7514  166.1930 C.ar    1  UNL1        0.0454
      3 C         139.1920  143.1781  164.9277 C.ar    1  UNL1        0.1850
      4 N         137.8814  143.8631  164.6766 N.ar    1  UNL1       -0.1270
      5 N         137.7243  144.0343  163.1948 N.ar    1  UNL1       -0.1269
      6 C         138.9378  143.4552  162.5299 C.ar    1  UNL1        0.1878
      7 N         139.8450  142.9261  163.6010 N.ar    1  UNL1       -0.2083
      8 N         141.1812  142.2473  163.5395 N.ar    1  UNL1       -0.2278
      9 C         141.8341  141.9952  162.2128 C.3     1  UNL1        0.1555
     10 C         141.8644  141.8205  164.8048 C.ar    1  UNL1        0.2753
     11 O         143.2007  141.1417  164.7434 O.2     1  UNL1       -0.2656
     12 C         141.1532  139.1927  166.9699 C.3     1  UNL1        0.0334
     13 C         141.8657  140.2059  167.8161 C.ar    1  UNL1        0.0058
     14 C         142.5490  139.7791  169.0814 C.ar    1  UNL1        0.1363
     15 F         142.5198  138.3391  169.5006 F       1  UNL1       -0.2045
     16 C         143.2615  140.7923  169.9275 C.ar    1  UNL1        0.0338
     17 C         143.2907  142.2323  169.5082 C.ar    1  UNL1        0.0556
     18 C         142.6074  142.6590  168.2429 C.ar    1  UNL1        0.0045
     19 C         141.8949  141.6458  167.3969 C.ar    1  UNL1        0.0031
     20 C         144.0032  143.2454  170.3543 C.2     1  UNL1        0.2459
     21 O         143.2257  144.1141  171.2983 O.2     1  UNL1       -0.2701
     22 N         145.4930  143.3900  170.2564 N.am    1  UNL1       -0.3025
     23 H         146.0032  142.8198  169.6368 H       1  UNL1        0.1497
     24 C         146.2054  144.4032  171.1025 C.3     1  UNL1        0.0720
     25 C         147.4261  144.8365  171.8588 C.3     1  UNL1        0.0213
     26 C         146.2184  145.7249  171.8116 C.3     1  UNL1        0.0213
     27 C         139.1984  143.4128  161.0534 C.ar    1  UNL1        0.0755
     28 C         138.6307  142.2998  160.2233 C.ar    1  UNL1        0.1439
     29 F         137.8025  141.2293  160.8698 F       1  UNL1       -0.2040
     30 C         138.8913  142.2573  158.7467 C.ar    1  UNL1        0.0298
     31 C         139.7196  143.3278  158.1002 C.ar    1  UNL1        0.0032
     32 C         140.2873  144.4408  158.9303 C.ar    1  UNL1        0.0116
     33 C         140.0267  144.4833  160.4069 C.ar    1  UNL1        0.0628
     34 CL        140.5944  145.5963  161.2369 Cl      1  UNL1       -0.0821
@<TRIPOS>BOND
     1    12    13    1
     2    13    14   ar
     3    14    15    1
     4    14    16   ar
     5    16    17   ar
     6    17    20    1
     7    20    21    2
     8    20    22   am
     9    22    24    1
    10    24    25    1
    11    25    26    1
    12    17    18   ar
    13    18    19   ar
    14    19     1    1
    15     1     2   ar
    16     2     3   ar
    17     3     4   ar
    18     4     5   ar
    19     5     6   ar
    20     6    27    1
    21    27    28   ar
    22    28    29    1
    23    28    30   ar
    24    30    31   ar
    25    31    32   ar
    26    32    33   ar
    27    33    34    1
    28     6     7   ar
    29     7     8   ar
    30     8     9    1
    31     8    10   ar
    32    10    11    2
    33    19    13   ar
    34    10     1   ar
    35    26    24    1
    36     7     3   ar
    37    33    27   ar
    38    22    23    1
@<TRIPOS>MOLECULE
*****
 34 38 0 0 0
SMALL
GASTEIGER

@<TRIPOS>ATOM
      1 C         142.1157  140.0522  162.9049 C.ar    1  UNL1        0.0604
      2 C         142.8590  139.0781  163.7701 C.ar    1  UNL1        0.0454
      3 C         142.8244  139.2226  165.2627 C.ar    1  UNL1        0.1850
      4 N         143.4539  138.4214  166.3635 N.ar    1  UNL1       -0.1270
      5 N         143.0650  139.0448  167.6712 N.ar    1  UNL1       -0.1269
      6 C         142.1951  140.2313  167.3786 C.ar    1  UNL1        0.1878
      7 N         142.0464  140.3412  165.8901 N.ar    1  UNL1       -0.2083
      8 N         141.3031  141.3152  165.0248 N.ar    1  UNL1       -0.2278
      9 C         140.5251  142.4338  165.6522 C.3     1  UNL1        0.1555
     10 C         141.3377  141.1707  163.5322 C.ar    1  UNL1        0.2753
     11 O         140.5944  142.1449  162.6670 O.2     1  UNL1       -0.2656
     12 C         140.1519  138.2514  161.5262 C.3     1  UNL1        0.0334
     13 C         141.1684  139.0073  160.7228 C.ar    1  UNL1        0.0058
     14 C         141.2031  138.8629  159.2302 C.ar    1  UNL1        0.1363
     15 F         140.2212  137.9624  158.5409 F       1  UNL1       -0.2045
     16 C         142.2196  139.6188  158.4270 C.ar    1  UNL1        0.0338
     17 C         143.2015  140.5192  159.1163 C.ar    1  UNL1        0.0556
     18 C         143.1668  140.6637  160.6089 C.ar    1  UNL1        0.0045
     19 C         142.1503  139.9078  161.4122 C.ar    1  UNL1        0.0031
     20 C         144.2180  141.2752  158.3130 C.2     1  UNL1        0.2459
     21 O         144.4621  142.7291  158.5898 O.2     1  UNL1       -0.2701
     22 N         144.9904  140.5772  157.2331 N.am    1  UNL1       -0.3025
     23 H         144.8302  139.6230  157.0515 H       1  UNL1        0.1497
     24 C         146.0069  141.3333  156.4298 C.3     1  UNL1        0.0720
     25 C         146.6486  141.6464  155.1107 C.3     1  UNL1        0.0213
     26 C         147.1258  142.3297  156.3579 C.3     1  UNL1        0.0213
     27 C         141.5817  141.1470  168.3960 C.ar    1  UNL1        0.0755
     28 C         142.3760  142.2928  168.9493 C.ar    1  UNL1        0.1439
     29 F         143.7838  142.5228  168.4853 F       1  UNL1       -0.2040
     30 C         141.7626  143.2087  169.9668 C.ar    1  UNL1        0.0298
     31 C         140.3550  142.9787  170.4308 C.ar    1  UNL1        0.0032
     32 C         139.5606  141.8328  169.8774 C.ar    1  UNL1        0.0116
     33 C         140.1739  140.9170  168.8601 C.ar    1  UNL1        0.0628
     34 CL        139.3796  139.7713  168.3067 Cl      1  UNL1       -0.0821
@<TRIPOS>BOND
     1    12    13    1
     2    13    14   ar
     3    14    15    1
     4    14    16   ar
     5    16    17   ar
     6    17    20    1
     7    20    21    2
     8    20    22   am
     9    22    24    1
    10    24    25    1
    11    25    26    1
    12    17    18   ar
    13    18    19   ar
    14    19     1    1
    15     1     2   ar
    16     2     3   ar
    17     3     4   ar
    18     4     5   ar
    19     5     6   ar
    20     6    27    1
    21    27    28   ar
    22    28    29    1
    23    28    30   ar
    24    30    31   ar
    25    31    32   ar
    26    32    33   ar
    27    33    34    1
    28     6     7   ar
    29     7     8   ar
    30     8     9    1
    31     8    10   ar
    32    10    11    2
    33    19    13   ar
    34    10     1   ar
    35    26    24    1
    36     7     3   ar
    37    33    27   ar
    38    22    23    1
@<TRIPOS>MOLECULE
*****
 34 38 0 0 0
SMALL
GASTEIGER

@<TRIPOS>ATOM
      1 C         142.2131  140.5217  162.1568 C.ar    1  UNL1        0.0604
      2 C         141.3306  141.6879  162.4904 C.ar    1  UNL1        0.0454
      3 C         141.0628  142.0399  163.9237 C.ar    1  UNL1        0.1850
      4 N         140.2412  143.1251  164.5540 N.ar    1  UNL1       -0.1270
      5 N         140.3482  142.9817  166.0433 N.ar    1  UNL1       -0.1269
      6 C         141.2359  141.8078  166.3334 C.ar    1  UNL1        0.1878
      7 N         141.6775  141.2258  165.0234 N.ar    1  UNL1       -0.2083
      8 N         142.5600  140.0596  164.6898 N.ar    1  UNL1       -0.2278
      9 C         143.1747  139.2455  165.7895 C.3     1  UNL1        0.1555
     10 C         142.8277  139.7076  163.2565 C.ar    1  UNL1        0.2753
     11 O         143.7103  138.5414  162.9229 O.2     1  UNL1       -0.2656
     12 C         140.6319  138.3473  160.8257 C.3     1  UNL1        0.0334
     13 C         141.6903  139.0824  160.0579 C.ar    1  UNL1        0.0058
     14 C         141.9581  138.7304  158.6246 C.ar    1  UNL1        0.1363
     15 F         141.1674  137.6432  157.9590 F       1  UNL1       -0.2045
     16 C         143.0165  139.4656  157.8568 C.ar    1  UNL1        0.0338
     17 C         143.8071  140.5527  158.5224 C.ar    1  UNL1        0.0556
     18 C         143.5393  140.9048  159.9557 C.ar    1  UNL1        0.0045
     19 C         142.4809  140.1696  160.7234 C.ar    1  UNL1        0.0031
     20 C         144.8654  141.2879  157.7547 C.2     1  UNL1        0.2459
     21 O         145.2043  142.7046  158.1131 O.2     1  UNL1       -0.2701
     22 N         145.5850  140.6064  156.6287 N.am    1  UNL1       -0.3025
     23 H         145.3626  139.6767  156.3935 H       1  UNL1        0.1497
     24 C         146.6433  141.3417  155.8610 C.3     1  UNL1        0.0720
     25 C         147.9953  141.9893  155.8067 C.3     1  UNL1        0.0213
     26 C         147.1245  141.9676  154.5856 C.3     1  UNL1        0.0213
     27 C         141.6152  141.3044  167.6945 C.ar    1  UNL1        0.0755
     28 C         142.8743  141.7898  168.3496 C.ar    1  UNL1        0.1439
     29 F         143.7540  142.7785  167.6435 F       1  UNL1       -0.2040
     30 C         143.2537  141.2864  169.7107 C.ar    1  UNL1        0.0298
     31 C         142.3741  140.2977  170.4168 C.ar    1  UNL1        0.0032
     32 C         141.1149  139.8124  169.7617 C.ar    1  UNL1        0.0116
     33 C         140.7355  140.3157  168.4006 C.ar    1  UNL1        0.0628
     34 CL        139.4764  139.8304  167.7456 Cl      1  UNL1       -0.0821
@<TRIPOS>BOND
     1    12    13    1
     2    13    14   ar
     3    14    15    1
     4    14    16   ar
     5    16    17   ar
     6    17    20    1
     7    20    21    2
     8    20    22   am
     9    22    24    1
    10    24    25    1
    11    25    26    1
    12    17    18   ar
    13    18    19   ar
    14    19     1    1
    15     1     2   ar
    16     2     3   ar
    17     3     4   ar
    18     4     5   ar
    19     5     6   ar
    20     6    27    1
    21    27    28   ar
    22    28    29    1
    23    28    30   ar
    24    30    31   ar
    25    31    32   ar
    26    32    33   ar
    27    33    34    1
    28     6     7   ar
    29     7     8   ar
    30     8     9    1
    31     8    10   ar
    32    10    11    2
    33    19    13   ar
    34    10     1   ar
    35    26    24    1
    36     7     3   ar
    37    33    27   ar
    38    22    23    1
@<TRIPOS>MOLECULE
*****
 34 38 0 0 0
SMALL
GASTEIGER

@<TRIPOS>ATOM
      1 C         141.6006  138.4183  158.6994 C.ar    1  UNL1        0.0604
      2 C         140.1777  138.8219  158.4491 C.ar    1  UNL1        0.0454
      3 C         139.2974  139.2177  159.5973 C.ar    1  UNL1        0.1850
      4 N         137.8651  139.6590  159.6582 N.ar    1  UNL1       -0.1270
      5 N         137.5224  139.9240  161.0943 N.ar    1  UNL1       -0.1269
      6 C         138.7429  139.6465  161.9209 C.ar    1  UNL1        0.1878
      7 N         139.8399  139.2099  160.9957 N.ar    1  UNL1       -0.2083
      8 N         141.2627  138.8063  161.2460 N.ar    1  UNL1       -0.2278
      9 C         141.8053  138.7985  162.6444 C.3     1  UNL1        0.1555
     10 C         142.1430  138.4105  160.0978 C.ar    1  UNL1        0.2753
     11 O         143.5659  138.0069  160.3481 O.2     1  UNL1       -0.2656
     12 C         143.1711  140.5058  157.2244 C.3     1  UNL1        0.0334
     13 C         143.2662  139.0662  156.8136 C.ar    1  UNL1        0.0058
     14 C         144.1466  138.6704  155.6655 C.ar    1  UNL1        0.1363
     15 F         144.9318  139.7142  154.9280 F       1  UNL1       -0.2045
     16 C         144.2416  137.2308  155.2548 C.ar    1  UNL1        0.0338
     17 C         143.4563  136.1871  155.9923 C.ar    1  UNL1        0.0556
     18 C         142.5760  136.5829  157.1405 C.ar    1  UNL1        0.0045
     19 C         142.4810  138.0225  157.5512 C.ar    1  UNL1        0.0031
     20 C         143.5514  134.7475  155.5816 C.2     1  UNL1        0.2459
     21 O         142.8513  134.2734  154.3426 O.2     1  UNL1       -0.2701
     22 N         144.3463  133.7822  156.4100 N.am    1  UNL1       -0.3025
     23 H         144.8058  134.0934  157.2232 H       1  UNL1        0.1497
     24 C         144.4413  132.3426  155.9992 C.3     1  UNL1        0.0720
     25 C         144.8850  130.9378  156.2813 C.3     1  UNL1        0.0213
     26 C         144.1621  131.2542  155.0056 C.3     1  UNL1        0.0213
     27 C         138.8479  139.7817  163.4111 C.ar    1  UNL1        0.0755
     28 C         138.7148  138.5701  164.2853 C.ar    1  UNL1        0.1439
     29 F         138.4767  137.2233  163.6694 F       1  UNL1       -0.2040
     30 C         138.8198  138.7053  165.7756 C.ar    1  UNL1        0.0298
     31 C         139.0579  140.0520  166.3915 C.ar    1  UNL1        0.0032
     32 C         139.1910  141.2637  165.5172 C.ar    1  UNL1        0.0116
     33 C         139.0860  141.1285  164.0271 C.ar    1  UNL1        0.0628
     34 CL        139.2191  142.3401  163.1528 Cl      1  UNL1       -0.0821
@<TRIPOS>BOND
     1    12    13    1
     2    13    14   ar
     3    14    15    1
     4    14    16   ar
     5    16    17   ar
     6    17    20    1
     7    20    21    2
     8    20    22   am
     9    22    24    1
    10    24    25    1
    11    25    26    1
    12    17    18   ar
    13    18    19   ar
    14    19     1    1
    15     1     2   ar
    16     2     3   ar
    17     3     4   ar
    18     4     5   ar
    19     5     6   ar
    20     6    27    1
    21    27    28   ar
    22    28    29    1
    23    28    30   ar
    24    30    31   ar
    25    31    32   ar
    26    32    33   ar
    27    33    34    1
    28     6     7   ar
    29     7     8   ar
    30     8     9    1
    31     8    10   ar
    32    10    11    2
    33    19    13   ar
    34    10     1   ar
    35    26    24    1
    36     7     3   ar
    37    33    27   ar
    38    22    23    1
@<TRIPOS>MOLECULE
*****
 34 38 0 0 0
SMALL
GASTEIGER

@<TRIPOS>ATOM
      1 C         142.0139  142.6678  162.1217 C.ar    1  UNL1        0.0604
      2 C         140.8294  141.7883  162.3929 C.ar    1  UNL1        0.0454
      3 C         140.5273  141.3485  163.7948 C.ar    1  UNL1        0.1850
      4 N         139.4383  140.4882  164.3641 N.ar    1  UNL1       -0.1270
      5 N         139.6477  140.3961  165.8465 N.ar    1  UNL1       -0.1269
      6 C         140.8660  141.1994  166.1934 C.ar    1  UNL1        0.1878
      7 N         141.4096  141.7880  164.9253 N.ar    1  UNL1       -0.2083
      8 N         142.5941  142.6674  164.6541 N.ar    1  UNL1       -0.2278
      9 C         143.4765  143.1070  165.7846 C.3     1  UNL1        0.1555
     10 C         142.8962  143.1073  163.2522 C.ar    1  UNL1        0.2753
     11 O         144.0808  143.9868  162.9810 O.2     1  UNL1       -0.2656
     12 C         140.4822  144.9392  160.8993 C.3     1  UNL1        0.0334
     13 C         141.5502  144.2434  160.1085 C.ar    1  UNL1        0.0058
     14 C         141.8523  144.6832  158.7067 C.ar    1  UNL1        0.1363
     15 F         141.0864  145.8190  158.0955 F       1  UNL1       -0.2045
     16 C         142.9203  143.9874  157.9160 C.ar    1  UNL1        0.0338
     17 C         143.6862  142.8517  158.5272 C.ar    1  UNL1        0.0556
     18 C         143.3841  142.4118  159.9291 C.ar    1  UNL1        0.0045
     19 C         142.3161  143.1077  160.7197 C.ar    1  UNL1        0.0031
     20 C         144.7542  142.1558  157.7365 C.2     1  UNL1        0.2459
     21 O         144.8431  140.6584  157.7517 O.2     1  UNL1       -0.2701
     22 N         145.7332  142.9572  156.9308 N.am    1  UNL1       -0.3025
     23 H         145.6748  143.9399  156.9208 H       1  UNL1        0.1497
     24 C         146.8012  142.2612  156.1401 C.3     1  UNL1        0.0720
     25 C         147.1999  141.3264  155.0369 C.3     1  UNL1        0.0213
     26 C         148.2524  141.9907  155.8740 C.3     1  UNL1        0.0213
     27 C         141.4399  141.3821  167.5672 C.ar    1  UNL1        0.0755
     28 C         141.0426  142.5687  168.3943 C.ar    1  UNL1        0.1439
     29 F         140.0715  143.5727  167.8476 F       1  UNL1       -0.2040
     30 C         141.6166  142.7514  169.7681 C.ar    1  UNL1        0.0298
     31 C         142.5877  141.7474  170.3148 C.ar    1  UNL1        0.0032
     32 C         142.9849  140.5608  169.4876 C.ar    1  UNL1        0.0116
     33 C         142.4111  140.3781  168.1139 C.ar    1  UNL1        0.0628
     34 CL        142.8083  139.1914  167.2868 Cl      1  UNL1       -0.0821
@<TRIPOS>BOND
     1    12    13    1
     2    13    14   ar
     3    14    15    1
     4    14    16   ar
     5    16    17   ar
     6    17    20    1
     7    20    21    2
     8    20    22   am
     9    22    24    1
    10    24    25    1
    11    25    26    1
    12    17    18   ar
    13    18    19   ar
    14    19     1    1
    15     1     2   ar
    16     2     3   ar
    17     3     4   ar
    18     4     5   ar
    19     5     6   ar
    20     6    27    1
    21    27    28   ar
    22    28    29    1
    23    28    30   ar
    24    30    31   ar
    25    31    32   ar
    26    32    33   ar
    27    33    34    1
    28     6     7   ar
    29     7     8   ar
    30     8     9    1
    31     8    10   ar
    32    10    11    2
    33    19    13   ar
    34    10     1   ar
    35    26    24    1
    36     7     3   ar
    37    33    27   ar
    38    22    23    1
@<TRIPOS>MOLECULE
*****
 34 38 0 0 0
SMALL
GASTEIGER

@<TRIPOS>ATOM
      1 C         139.8841  142.1262  161.0242 C.ar    1  UNL1        0.0604
      2 C         140.9669  141.0998  161.1800 C.ar    1  UNL1        0.0454
      3 C         141.3516  140.6170  162.5471 C.ar    1  UNL1        0.1850
      4 N         142.3731  139.6204  163.0089 N.ar    1  UNL1       -0.1270
      5 N         142.3063  139.5481  164.5057 N.ar    1  UNL1       -0.1269
      6 C         141.2436  140.5000  164.9689 C.ar    1  UNL1        0.1878
      7 N         140.6535  141.1606  163.7583 N.ar    1  UNL1       -0.2083
      8 N         139.5708  142.1870  163.6025 N.ar    1  UNL1       -0.2278
      9 C         138.8727  142.7306  164.8138 C.3     1  UNL1        0.1555
     10 C         139.1861  142.6697  162.2355 C.ar    1  UNL1        0.2753
     11 O         138.1033  143.6961  162.0797 O.2     1  UNL1       -0.2656
     12 C         141.2728  144.5001  159.8260 C.3     1  UNL1        0.0334
     13 C         140.1937  143.7959  159.0579 C.ar    1  UNL1        0.0058
     14 C         139.8090  144.2787  157.6908 C.ar    1  UNL1        0.1363
     15 F         140.5035  145.4657  157.0917 F       1  UNL1       -0.2045
     16 C         138.7300  143.5744  156.9229 C.ar    1  UNL1        0.0338
     17 C         138.0357  142.3875  157.5220 C.ar    1  UNL1        0.0556
     18 C         138.4204  141.9047  158.8891 C.ar    1  UNL1        0.0045
     19 C         139.4994  142.6090  159.6570 C.ar    1  UNL1        0.0031
     20 C         136.9566  141.6832  156.7540 C.2     1  UNL1        0.2459
     21 O         136.6909  140.2272  156.9978 O.2     1  UNL1       -0.2701
     22 N         136.1434  142.4350  155.7424 N.am    1  UNL1       -0.3025
     23 H         136.3178  143.3906  155.5824 H       1  UNL1        0.1497
     24 C         135.0644  141.7307  154.9745 C.3     1  UNL1        0.0720
     25 C         134.4077  141.3938  153.6686 C.3     1  UNL1        0.0213
     26 C         133.8521  140.8476  154.9504 C.3     1  UNL1        0.0213
     27 C         140.8415  140.7477  166.3926 C.ar    1  UNL1        0.0755
     28 C         141.5759  141.7663  167.2129 C.ar    1  UNL1        0.1439
     29 F         142.7124  142.5373  166.6095 F       1  UNL1       -0.2040
     30 C         141.1739  142.0141  168.6367 C.ar    1  UNL1        0.0298
     31 C         140.0375  141.2432  169.2401 C.ar    1  UNL1        0.0032
     32 C         139.3031  140.2244  168.4197 C.ar    1  UNL1        0.0116
     33 C         139.7051  139.9767  166.9960 C.ar    1  UNL1        0.0628
     34 CL        138.9707  138.9580  166.1757 Cl      1  UNL1       -0.0821
@<TRIPOS>BOND
     1    12    13    1
     2    13    14   ar
     3    14    15    1
     4    14    16   ar
     5    16    17   ar
     6    17    20    1
     7    20    21    2
     8    20    22   am
     9    22    24    1
    10    24    25    1
    11    25    26    1
    12    17    18   ar
    13    18    19   ar
    14    19     1    1
    15     1     2   ar
    16     2     3   ar
    17     3     4   ar
    18     4     5   ar
    19     5     6   ar
    20     6    27    1
    21    27    28   ar
    22    28    29    1
    23    28    30   ar
    24    30    31   ar
    25    31    32   ar
    26    32    33   ar
    27    33    34    1
    28     6     7   ar
    29     7     8   ar
    30     8     9    1
    31     8    10   ar
    32    10    11    2
    33    19    13   ar
    34    10     1   ar
    35    26    24    1
    36     7     3   ar
    37    33    27   ar
    38    22    23    1
@<TRIPOS>MOLECULE
*****
 34 38 0 0 0
SMALL
GASTEIGER

@<TRIPOS>ATOM
      1 C         140.9633  143.6468  158.9900 C.ar    1  UNL1        0.0604
      2 C         142.4295  143.3674  158.8401 C.ar    1  UNL1        0.0454
      3 C         143.2248  142.8837  160.0163 C.ar    1  UNL1        0.1850
      4 N         144.6739  142.5278  160.1700 N.ar    1  UNL1       -0.1270
      5 N         144.8986  142.1035  161.5911 N.ar    1  UNL1       -0.1269
      6 C         143.5885  142.1970  162.3156 C.ar    1  UNL1        0.1878
      7 N         142.5540  142.6792  161.3423 N.ar    1  UNL1       -0.2083
      8 N         141.0879  142.9585  161.4921 N.ar    1  UNL1       -0.2278
      9 C         140.4171  142.7541  162.8181 C.3     1  UNL1        0.1555
     10 C         140.2926  143.4423  160.3159 C.ar    1  UNL1        0.2753
     11 O         138.8264  143.7216  160.4658 O.2     1  UNL1       -0.2656
     12 C         139.3493  141.7052  157.3698 C.3     1  UNL1        0.0334
     13 C         139.3609  143.1598  157.0037 C.ar    1  UNL1        0.0058
     14 C         138.5656  143.6436  155.8275 C.ar    1  UNL1        0.1363
     15 F         137.7585  142.6727  155.0174 F       1  UNL1       -0.2045
     16 C         138.5773  145.0982  155.4614 C.ar    1  UNL1        0.0338
     17 C         139.3843  146.0690  156.2715 C.ar    1  UNL1        0.0556
     18 C         140.1797  145.5852  157.4476 C.ar    1  UNL1        0.0045
     19 C         140.1679  144.1306  157.8137 C.ar    1  UNL1        0.0031
     20 C         139.3960  147.5236  155.9054 C.2     1  UNL1        0.2459
     21 O         140.1763  147.9904  154.7123 O.2     1  UNL1       -0.2701
     22 N         138.6275  148.5113  156.7323 N.am    1  UNL1       -0.3025
     23 H         138.1154  148.2049  157.5153 H       1  UNL1        0.1497
     24 C         138.6393  149.9659  156.3661 C.3     1  UNL1        0.0720
     25 C         138.9312  151.3931  156.7235 C.3     1  UNL1        0.0213
     26 C         138.3677  151.0580  155.3744 C.3     1  UNL1        0.0213
     27 C         143.3541  141.8664  163.7598 C.ar    1  UNL1        0.0755
     28 C         142.9144  140.4869  164.1515 C.ar    1  UNL1        0.1439
     29 F         142.7090  139.4380  163.0991 F       1  UNL1       -0.2040
     30 C         142.6799  140.1562  165.5958 C.ar    1  UNL1        0.0298
     31 C         142.8852  141.2051  166.6482 C.ar    1  UNL1        0.0032
     32 C         143.3249  142.5847  166.2563 C.ar    1  UNL1        0.0116
     33 C         143.5594  142.9153  164.8122 C.ar    1  UNL1        0.0628
     34 CL        143.9991  144.2949  164.4205 Cl      1  UNL1       -0.0821
@<TRIPOS>BOND
     1    12    13    1
     2    13    14   ar
     3    14    15    1
     4    14    16   ar
     5    16    17   ar
     6    17    20    1
     7    20    21    2
     8    20    22   am
     9    22    24    1
    10    24    25    1
    11    25    26    1
    12    17    18   ar
    13    18    19   ar
    14    19     1    1
    15     1     2   ar
    16     2     3   ar
    17     3     4   ar
    18     4     5   ar
    19     5     6   ar
    20     6    27    1
    21    27    28   ar
    22    28    29    1
    23    28    30   ar
    24    30    31   ar
    25    31    32   ar
    26    32    33   ar
    27    33    34    1
    28     6     7   ar
    29     7     8   ar
    30     8     9    1
    31     8    10   ar
    32    10    11    2
    33    19    13   ar
    34    10     1   ar
    35    26    24    1
    36     7     3   ar
    37    33    27   ar
    38    22    23    1
@<TRIPOS>MOLECULE
*****
 34 38 0 0 0
SMALL
GASTEIGER

@<TRIPOS>ATOM
      1 C         139.8101  140.7537  162.9588 C.ar    1  UNL1        0.0604
      2 C         138.9158  139.9687  163.8721 C.ar    1  UNL1        0.0454
      3 C         139.1476  139.9955  165.3538 C.ar    1  UNL1        0.1850
      4 N         138.4358  139.3284  166.4932 N.ar    1  UNL1       -0.1270
      5 N         139.1220  139.7279  167.7658 N.ar    1  UNL1       -0.1269
      6 C         140.2578  140.6419  167.4130 C.ar    1  UNL1        0.1878
      7 N         140.2736  140.8074  165.9222 N.ar    1  UNL1       -0.2083
      8 N         141.1678  141.5923  165.0089 N.ar    1  UNL1       -0.2278
      9 C         142.2938  142.4041  165.5773 C.3     1  UNL1        0.1555
     10 C         140.9360  141.5655  163.5272 C.ar    1  UNL1        0.2753
     11 O         141.8303  142.3505  162.6139 O.2     1  UNL1       -0.2656
     12 C         138.1601  142.8961  161.6596 C.3     1  UNL1        0.0334
     13 C         138.7533  141.7981  160.8273 C.ar    1  UNL1        0.0058
     14 C         138.5216  141.7712  159.3456 C.ar    1  UNL1        0.1363
     15 F         137.6965  142.8425  158.6961 F       1  UNL1       -0.2045
     16 C         139.1148  140.6732  158.5135 C.ar    1  UNL1        0.0338
     17 C         139.9398  139.6021  159.1631 C.ar    1  UNL1        0.0556
     18 C         140.1716  139.6289  160.6448 C.ar    1  UNL1        0.0045
     19 C         139.5783  140.7269  161.4769 C.ar    1  UNL1        0.0031
     20 C         140.5331  138.5041  158.3309 C.2     1  UNL1        0.2459
     21 O         139.6375  137.5784  157.5620 O.2     1  UNL1       -0.2701
     22 N         142.0218  138.3317  158.2677 N.am    1  UNL1       -0.3025
     23 H         142.6096  138.9393  158.7724 H       1  UNL1        0.1497
     24 C         142.6150  137.2337  157.4355 C.3     1  UNL1        0.0720
     25 C         142.8892  135.7759  157.2129 C.3     1  UNL1        0.0213
     26 C         143.3682  136.7898  156.2167 C.3     1  UNL1        0.0213
     27 C         141.2104  141.2787  168.3809 C.ar    1  UNL1        0.0755
     28 C         140.9753  142.6838  168.8502 C.ar    1  UNL1        0.1439
     29 F         139.7874  143.4522  168.3515 F       1  UNL1       -0.2040
     30 C         141.9279  143.3207  169.8182 C.ar    1  UNL1        0.0298
     31 C         143.1157  142.5524  170.3168 C.ar    1  UNL1        0.0032
     32 C         143.3509  141.1472  169.8475 C.ar    1  UNL1        0.0116
     33 C         142.3983  140.5103  168.8796 C.ar    1  UNL1        0.0628
     34 CL        142.6335  139.1052  168.4104 Cl      1  UNL1       -0.0821
@<TRIPOS>BOND
     1    12    13    1
     2    13    14   ar
     3    14    15    1
     4    14    16   ar
     5    16    17   ar
     6    17    20    1
     7    20    21    2
     8    20    22   am
     9    22    24    1
    10    24    25    1
    11    25    26    1
    12    17    18   ar
    13    18    19   ar
    14    19     1    1
    15     1     2   ar
    16     2     3   ar
    17     3     4   ar
    18     4     5   ar
    19     5     6   ar
    20     6    27    1
    21    27    28   ar
    22    28    29    1
    23    28    30   ar
    24    30    31   ar
    25    31    32   ar
    26    32    33   ar
    27    33    34    1
    28     6     7   ar
    29     7     8   ar
    30     8     9    1
    31     8    10   ar
    32    10    11    2
    33    19    13   ar
    34    10     1   ar
    35    26    24    1
    36     7     3   ar
    37    33    27   ar
    38    22    23    1
@<TRIPOS>MOLECULE
*****
 34 38 0 0 0
SMALL
GASTEIGER

@<TRIPOS>ATOM
      1 C         140.4297  142.7260  157.7414 C.ar    1  UNL1        0.0604
      2 C         141.4732  141.8576  157.1034 C.ar    1  UNL1        0.0454
      3 C         142.4146  141.0640  157.9601 C.ar    1  UNL1        0.1850
      4 N         143.5360  140.1283  157.6184 N.ar    1  UNL1       -0.1270
      5 N         144.1269  139.6247  158.9018 N.ar    1  UNL1       -0.1269
      6 C         143.3707  140.2492  160.0368 C.ar    1  UNL1        0.1878
      7 N         142.3124  141.1388  159.4548 N.ar    1  UNL1       -0.2083
      8 N         141.2689  142.0072  160.0927 N.ar    1  UNL1       -0.2278
      9 C         141.1667  142.0819  161.5873 C.3     1  UNL1        0.1555
     10 C         140.3275  142.8008  159.2359 C.ar    1  UNL1        0.2753
     11 O         139.2840  143.6692  159.8739 O.2     1  UNL1       -0.2656
     12 C         137.8910  141.4754  156.7460 C.3     1  UNL1        0.0334
     13 C         138.2190  142.8944  156.3869 C.ar    1  UNL1        0.0058
     14 C         137.2776  143.6880  155.5302 C.ar    1  UNL1        0.1363
     15 F         136.0083  143.0626  155.0325 F       1  UNL1       -0.2045
     16 C         137.6056  145.1070  155.1711 C.ar    1  UNL1        0.0338
     17 C         138.8750  145.7324  155.6689 C.ar    1  UNL1        0.0556
     18 C         139.8163  144.9387  156.5256 C.ar    1  UNL1        0.0045
     19 C         139.4883  143.5197  156.8846 C.ar    1  UNL1        0.0031
     20 C         139.2030  147.1514  155.3098 C.2     1  UNL1        0.2459
     21 O         140.3098  147.4430  154.3402 O.2     1  UNL1       -0.2701
     22 N         138.4242  148.2787  155.9204 N.am    1  UNL1       -0.3025
     23 H         137.6979  148.0873  156.5567 H       1  UNL1        0.1497
     24 C         138.7523  149.6977  155.5613 C.3     1  UNL1        0.0720
     25 C         138.9184  151.1338  155.9613 C.3     1  UNL1        0.0213
     26 C         139.1545  150.7192  154.5392 C.3     1  UNL1        0.0213
     27 C         143.6277  140.0238  161.4973 C.ar    1  UNL1        0.0755
     28 C         144.6008  140.8980  162.2312 C.ar    1  UNL1        0.1439
     29 F         145.3170  141.9977  161.5047 F       1  UNL1       -0.2040
     30 C         144.8579  140.6726  163.6918 C.ar    1  UNL1        0.0298
     31 C         144.1418  139.5730  164.4183 C.ar    1  UNL1        0.0032
     32 C         143.1686  138.6988  163.6843 C.ar    1  UNL1        0.0116
     33 C         142.9115  138.9241  162.2239 C.ar    1  UNL1        0.0628
     34 CL        141.9384  138.0499  161.4899 Cl      1  UNL1       -0.0821
@<TRIPOS>BOND
     1    12    13    1
     2    13    14   ar
     3    14    15    1
     4    14    16   ar
     5    16    17   ar
     6    17    20    1
     7    20    21    2
     8    20    22   am
     9    22    24    1
    10    24    25    1
    11    25    26    1
    12    17    18   ar
    13    18    19   ar
    14    19     1    1
    15     1     2   ar
    16     2     3   ar
    17     3     4   ar
    18     4     5   ar
    19     5     6   ar
    20     6    27    1
    21    27    28   ar
    22    28    29    1
    23    28    30   ar
    24    30    31   ar
    25    31    32   ar
    26    32    33   ar
    27    33    34    1
    28     6     7   ar
    29     7     8   ar
    30     8     9    1
    31     8    10   ar
    32    10    11    2
    33    19    13   ar
    34    10     1   ar
    35    26    24    1
    36     7     3   ar
    37    33    27   ar
    38    22    23    1
