@<TRIPOS>MOLECULE
*****
 31 33 0 0 0
SMALL
GASTEIGER

@<TRIPOS>ATOM
      1 N         141.9107  144.2268  161.7983 N.3     1  UNL1       -0.2700
      2 C         140.9196  145.1068  161.0960 C.3     1  UNL1        0.0579
      3 C         140.0159  146.0019  161.8911 C.3     1  UNL1        0.0173
      4 C         140.8322  145.0918  159.5987 C.3     1  UNL1        0.0173
      5 C         142.3968  142.9700  161.1394 C.3     1  UNL1        0.0771
      6 C         141.5450  141.7354  161.1584 C.3     1  UNL1        0.0465
      7 C         144.1323  140.0493  162.2131 C.3     1  UNL1        0.0537
      8 C         142.7658  140.0457  162.8316 C.ar    1  UNL1        0.0768
      9 N         142.3485  139.2664  164.0435 N.ar    1  UNL1       -0.1698
     10 N         140.9014  139.5598  164.3077 N.ar    1  UNL1       -0.2288
     11 C         139.9565  139.0764  165.3676 C.ar    1  UNL1        0.1003
     12 C         138.5345  139.5535  165.3788 C.ar    1  UNL1        0.0207
     13 C         138.0574  140.5141  164.3302 C.ar    1  UNL1        0.0031
     14 C         139.0023  140.9976  163.2703 C.ar    1  UNL1        0.0189
     15 C         140.4243  140.5204  163.2590 C.ar    1  UNL1        0.0801
     16 C         141.5765  140.8207  162.3468 C.ar    1  UNL1        0.0121
     17 C         142.4158  144.6035  163.1595 C.3     1  UNL1        0.0991
     18 C         141.9602  143.8385  164.3667 C.ar    1  UNL1       -0.0061
     19 C         142.9261  142.9626  165.1082 C.ar    1  UNL1       -0.0029
     20 C         142.4704  142.1976  166.3153 C.ar    1  UNL1       -0.0003
     21 C         141.0488  142.3084  166.7809 C.ar    1  UNL1        0.0001
     22 C         140.0829  143.1843  166.0395 C.ar    1  UNL1       -0.0003
     23 C         140.5385  143.9493  164.8323 C.ar    1  UNL1       -0.0029
     24 C         140.5932  141.5434  167.9881 C.2     1  UNL1        0.0047
     25 C         140.9686  142.0161  169.3612 C.2     1  UNL1        0.0598
     26 C         140.5130  141.2511  170.5684 C.2     1  UNL1        0.2679
     27 O         140.5372  141.9000  171.9206 O.2     1  UNL1       -0.2681
     28 N         140.0333  139.8373  170.4235 N.am    1  UNL1       -0.1934
     29 O         139.5777  139.0724  171.6307 O.3     1  UNL1       -0.2949
     30 H         140.0175  139.4114  169.5360 H       1  UNL1        0.1825
     31 H         139.6569  139.6336  172.4179 H       1  UNL1        0.2414
@<TRIPOS>BOND
     1     7     8    1
     2     8     9   ar
     3     9    10   ar
     4    10    11   ar
     5    11    12   ar
     6    12    13   ar
     7    13    14   ar
     8    14    15   ar
     9    15    16   ar
    10    16     6    1
    11     6     5    1
    12     5     1    1
    13     1    17    1
    14    17    18    1
    15    18    19   ar
    16    19    20   ar
    17    20    21   ar
    18    21    24    1
    19    24    25    2
    20    25    26    1
    21    26    27    2
    22    26    28   am
    23    28    29    1
    24    21    22   ar
    25    22    23   ar
    26     1     2    1
    27     2     3    1
    28     2     4    1
    29    16     8   ar
    30    23    18   ar
    31    15    10   ar
    32    28    30    1
    33    29    31    1
@<TRIPOS>MOLECULE
*****
 31 33 0 0 0
SMALL
GASTEIGER

@<TRIPOS>ATOM
      1 N         144.4541  141.0446  162.1698 N.3     1  UNL1       -0.2700
      2 C         144.5409  142.3908  161.5141 C.3     1  UNL1        0.0579
      3 C         144.4651  143.6366  162.3461 C.3     1  UNL1        0.0173
      4 C         144.7035  142.4913  160.0263 C.3     1  UNL1        0.0173
      5 C         143.7178  139.9267  161.4929 C.3     1  UNL1        0.0771
      6 C         142.2247  139.9840  161.3603 C.3     1  UNL1        0.0465
      7 C         141.1049  137.4033  163.0142 C.3     1  UNL1        0.0537
      8 C         140.8492  138.8431  163.3481 C.ar    1  UNL1        0.0768
      9 N         140.0339  139.3495  164.5008 N.ar    1  UNL1       -0.1698
     10 N         140.0448  140.8488  164.4531 N.ar    1  UNL1       -0.2288
     11 C         139.4124  141.8856  165.3334 C.ar    1  UNL1        0.1003
     12 C         139.6019  143.3425  165.0314 C.ar    1  UNL1        0.0207
     13 C         140.4239  143.7627  163.8492 C.ar    1  UNL1        0.0031
     14 C         141.0564  142.7259  162.9688 C.ar    1  UNL1        0.0189
     15 C         140.8668  141.2689  163.2708 C.ar    1  UNL1        0.0801
     16 C         141.3639  140.0293  162.5879 C.ar    1  UNL1        0.0121
     17 C         145.1036  140.8161  163.5024 C.3     1  UNL1        0.0991
     18 C         144.2576  140.5781  164.7180 C.ar    1  UNL1       -0.0061
     19 C         143.6822  141.7411  165.4707 C.ar    1  UNL1       -0.0029
     20 C         142.8362  141.5030  166.6864 C.ar    1  UNL1       -0.0003
     21 C         142.5656  140.1021  167.1493 C.ar    1  UNL1        0.0001
     22 C         143.1410  138.9392  166.3966 C.ar    1  UNL1       -0.0003
     23 C         143.9870  139.1772  165.1810 C.ar    1  UNL1       -0.0029
     24 C         141.7196  139.8642  168.3649 C.2     1  UNL1        0.0047
     25 C         140.4269  140.6056  168.5357 C.2     1  UNL1        0.0598
     26 C         139.5808  140.3677  169.7513 C.2     1  UNL1        0.2679
     27 O         140.0468  140.8458  171.0945 O.2     1  UNL1       -0.2681
     28 N         138.2689  139.6517  169.6237 N.am    1  UNL1       -0.1934
     29 O         137.4230  139.4139  170.8393 O.3     1  UNL1       -0.2949
     30 H         137.9631  139.3379  168.7421 H       1  UNL1        0.1825
     31 H         137.8664  139.7829  171.6191 H       1  UNL1        0.2414
@<TRIPOS>BOND
     1     7     8    1
     2     8     9   ar
     3     9    10   ar
     4    10    11   ar
     5    11    12   ar
     6    12    13   ar
     7    13    14   ar
     8    14    15   ar
     9    15    16   ar
    10    16     6    1
    11     6     5    1
    12     5     1    1
    13     1    17    1
    14    17    18    1
    15    18    19   ar
    16    19    20   ar
    17    20    21   ar
    18    21    24    1
    19    24    25    2
    20    25    26    1
    21    26    27    2
    22    26    28   am
    23    28    29    1
    24    21    22   ar
    25    22    23   ar
    26     1     2    1
    27     2     3    1
    28     2     4    1
    29    16     8   ar
    30    23    18   ar
    31    15    10   ar
    32    28    30    1
    33    29    31    1
@<TRIPOS>MOLECULE
*****
 31 33 0 0 0
SMALL
GASTEIGER

@<TRIPOS>ATOM
      1 N         140.3482  137.8918  161.7668 N.3     1  UNL1       -0.2700
      2 C         141.6132  138.3680  161.1164 C.3     1  UNL1        0.0579
      3 C         141.5491  139.1831  159.8587 C.3     1  UNL1        0.0173
      4 C         142.9423  138.0292  161.7236 C.3     1  UNL1        0.0173
      5 C         139.0305  138.0883  161.0775 C.3     1  UNL1        0.0771
      6 C         137.9997  138.9992  161.6758 C.3     1  UNL1        0.0465
      7 C         138.2088  140.5220  158.7970 C.3     1  UNL1        0.0537
      8 C         138.1932  141.1814  160.1442 C.ar    1  UNL1        0.0768
      9 N         138.2711  142.6565  160.4048 N.ar    1  UNL1       -0.1698
     10 N         138.2231  142.8683  161.8890 N.ar    1  UNL1       -0.2288
     11 C         138.2634  144.1115  162.7273 C.ar    1  UNL1        0.1003
     12 C         138.1962  144.0104  164.2224 C.ar    1  UNL1        0.0207
     13 C         138.0887  142.6661  164.8791 C.ar    1  UNL1        0.0031
     14 C         138.0484  141.4229  164.0408 C.ar    1  UNL1        0.0189
     15 C         138.1156  141.5240  162.5458 C.ar    1  UNL1        0.0801
     16 C         138.0971  140.4815  161.4674 C.ar    1  UNL1        0.0121
     17 C         140.4009  137.2191  163.1064 C.3     1  UNL1        0.0991
     18 C         140.1909  138.0205  164.3568 C.ar    1  UNL1       -0.0061
     19 C         141.2592  138.9589  164.8344 C.ar    1  UNL1       -0.0029
     20 C         141.0491  139.7604  166.0849 C.ar    1  UNL1       -0.0003
     21 C         139.7709  139.6234  166.8577 C.ar    1  UNL1        0.0001
     22 C         138.7026  138.6850  166.3801 C.ar    1  UNL1       -0.0003
     23 C         138.9126  137.8835  165.1297 C.ar    1  UNL1       -0.0029
     24 C         139.5609  140.4249  168.1081 C.2     1  UNL1        0.0047
     25 C         140.5296  141.5098  168.4750 C.2     1  UNL1        0.0598
     26 C         140.3197  142.3113  169.7255 C.2     1  UNL1        0.2679
     27 O         139.9734  143.7678  169.6333 O.2     1  UNL1       -0.2681
     28 N         140.4562  141.6563  171.0680 N.am    1  UNL1       -0.1934
     29 O         140.2463  142.4579  172.3184 O.3     1  UNL1       -0.2949
     30 H         140.6835  140.7004  171.1285 H       1  UNL1        0.1825
     31 H         140.0311  143.3740  172.0828 H       1  UNL1        0.2414
@<TRIPOS>BOND
     1     7     8    1
     2     8     9   ar
     3     9    10   ar
     4    10    11   ar
     5    11    12   ar
     6    12    13   ar
     7    13    14   ar
     8    14    15   ar
     9    15    16   ar
    10    16     6    1
    11     6     5    1
    12     5     1    1
    13     1    17    1
    14    17    18    1
    15    18    19   ar
    16    19    20   ar
    17    20    21   ar
    18    21    24    1
    19    24    25    2
    20    25    26    1
    21    26    27    2
    22    26    28   am
    23    28    29    1
    24    21    22   ar
    25    22    23   ar
    26     1     2    1
    27     2     3    1
    28     2     4    1
    29    16     8   ar
    30    23    18   ar
    31    15    10   ar
    32    28    30    1
    33    29    31    1
@<TRIPOS>MOLECULE
*****
 31 33 0 0 0
SMALL
GASTEIGER

@<TRIPOS>ATOM
      1 N         140.7731  138.0053  162.3314 N.3     1  UNL1       -0.2700
      2 C         139.4628  138.1134  161.6094 C.3     1  UNL1        0.0579
      3 C         139.4391  138.2694  160.1177 C.3     1  UNL1        0.0173
      4 C         138.1762  138.0655  162.3790 C.3     1  UNL1        0.0173
      5 C         142.0339  138.4815  161.6729 C.3     1  UNL1        0.0771
      6 C         142.2512  139.9475  161.4408 C.3     1  UNL1        0.0465
      7 C         145.0438  140.8166  162.8886 C.3     1  UNL1        0.0537
      8 C         143.6698  141.2792  163.2736 C.ar    1  UNL1        0.0768
      9 N         143.3381  142.2225  164.3918 N.ar    1  UNL1       -0.1698
     10 N         141.8496  142.4060  164.4174 N.ar    1  UNL1       -0.2288
     11 C         140.9539  143.2215  165.3020 C.ar    1  UNL1        0.1003
     12 C         139.4699  143.2072  165.0843 C.ar    1  UNL1        0.0207
     13 C         138.8816  142.3773  163.9819 C.ar    1  UNL1        0.0031
     14 C         139.7773  141.5618  163.0973 C.ar    1  UNL1        0.0189
     15 C         141.2613  141.5761  163.3150 C.ar    1  UNL1        0.0801
     16 C         142.3862  140.8797  162.6082 C.ar    1  UNL1        0.0121
     17 C         140.8228  137.4209  163.7120 C.3     1  UNL1        0.0991
     18 C         141.2715  138.2651  164.8679 C.ar    1  UNL1       -0.0061
     19 C         142.7246  138.3219  165.2356 C.ar    1  UNL1       -0.0029
     20 C         143.1731  139.1661  166.3916 C.ar    1  UNL1       -0.0003
     21 C         142.1687  139.9534  167.1798 C.ar    1  UNL1        0.0001
     22 C         140.7156  139.8965  166.8121 C.ar    1  UNL1       -0.0003
     23 C         140.2669  139.0523  165.6562 C.ar    1  UNL1       -0.0029
     24 C         142.6173  140.7975  168.3358 C.2     1  UNL1        0.0047
     25 C         141.6071  141.3528  169.2955 C.2     1  UNL1        0.0598
     26 C         142.0557  142.1969  170.4514 C.2     1  UNL1        0.2679
     27 O         141.4364  142.0061  171.8042 O.2     1  UNL1       -0.2681
     28 N         143.1235  143.2318  170.2547 N.am    1  UNL1       -0.1934
     29 O         143.5719  144.0759  171.4107 O.3     1  UNL1       -0.2949
     30 H         143.5299  143.3571  169.3668 H       1  UNL1        0.1825
     31 H         143.0748  143.8264  172.2053 H       1  UNL1        0.2414
@<TRIPOS>BOND
     1     7     8    1
     2     8     9   ar
     3     9    10   ar
     4    10    11   ar
     5    11    12   ar
     6    12    13   ar
     7    13    14   ar
     8    14    15   ar
     9    15    16   ar
    10    16     6    1
    11     6     5    1
    12     5     1    1
    13     1    17    1
    14    17    18    1
    15    18    19   ar
    16    19    20   ar
    17    20    21   ar
    18    21    24    1
    19    24    25    2
    20    25    26    1
    21    26    27    2
    22    26    28   am
    23    28    29    1
    24    21    22   ar
    25    22    23   ar
    26     1     2    1
    27     2     3    1
    28     2     4    1
    29    16     8   ar
    30    23    18   ar
    31    15    10   ar
    32    28    30    1
    33    29    31    1
@<TRIPOS>MOLECULE
*****
 31 33 0 0 0
SMALL
GASTEIGER

@<TRIPOS>ATOM
      1 N         144.1863  140.6885  162.1533 N.3     1  UNL1       -0.2700
      2 C         143.9023  139.4941  161.2915 C.3     1  UNL1        0.0579
      3 C         143.8185  139.6470  159.8017 C.3     1  UNL1        0.0173
      4 C         143.7020  138.1467  161.9196 C.3     1  UNL1        0.0173
      5 C         143.8123  142.0615  161.6790 C.3     1  UNL1        0.0771
      6 C         142.3673  142.4466  161.5610 C.3     1  UNL1        0.0465
      7 C         141.8619  145.1689  163.2882 C.3     1  UNL1        0.0537
      8 C         141.2873  143.8159  163.5868 C.ar    1  UNL1        0.0768
      9 N         140.3796  143.4765  164.7317 N.ar    1  UNL1       -0.1698
     10 N         140.0508  142.0156  164.6454 N.ar    1  UNL1       -0.2288
     11 C         139.2009  141.1257  165.5031 C.ar    1  UNL1        0.1003
     12 C         139.0556  139.6721  165.1625 C.ar    1  UNL1        0.0207
     13 C         139.7602  139.1085  163.9643 C.ar    1  UNL1        0.0031
     14 C         140.6101  139.9984  163.1066 C.ar    1  UNL1        0.0189
     15 C         140.7554  141.4519  163.4471 C.ar    1  UNL1        0.0801
     16 C         141.5196  142.5646  162.7929 C.ar    1  UNL1        0.0121
     17 C         144.8443  140.5100  163.4893 C.3     1  UNL1        0.0991
     18 C         144.0479  140.6901  164.7476 C.ar    1  UNL1       -0.0061
     19 C         143.9273  142.0491  165.3709 C.ar    1  UNL1       -0.0029
     20 C         143.1308  142.2291  166.6292 C.ar    1  UNL1       -0.0003
     21 C         142.4549  141.0501  167.2641 C.ar    1  UNL1        0.0001
     22 C         142.5754  139.6911  166.6408 C.ar    1  UNL1       -0.0003
     23 C         143.3719  139.5111  165.3825 C.ar    1  UNL1       -0.0029
     24 C         141.6584  141.2302  168.5224 C.2     1  UNL1        0.0047
     25 C         141.7191  142.5298  169.2688 C.2     1  UNL1        0.0598
     26 C         140.9227  142.7099  170.5271 C.2     1  UNL1        0.2679
     27 O         141.4245  142.1395  171.8204 O.2     1  UNL1       -0.2681
     28 N         139.6244  143.4605  170.4921 N.am    1  UNL1       -0.1934
     29 O         138.8281  143.6406  171.7504 O.3     1  UNL1       -0.2949
     30 H         139.2950  143.8349  169.6433 H       1  UNL1        0.1825
     31 H         139.2900  143.2144  172.4893 H       1  UNL1        0.2414
@<TRIPOS>BOND
     1     7     8    1
     2     8     9   ar
     3     9    10   ar
     4    10    11   ar
     5    11    12   ar
     6    12    13   ar
     7    13    14   ar
     8    14    15   ar
     9    15    16   ar
    10    16     6    1
    11     6     5    1
    12     5     1    1
    13     1    17    1
    14    17    18    1
    15    18    19   ar
    16    19    20   ar
    17    20    21   ar
    18    21    24    1
    19    24    25    2
    20    25    26    1
    21    26    27    2
    22    26    28   am
    23    28    29    1
    24    21    22   ar
    25    22    23   ar
    26     1     2    1
    27     2     3    1
    28     2     4    1
    29    16     8   ar
    30    23    18   ar
    31    15    10   ar
    32    28    30    1
    33    29    31    1
@<TRIPOS>MOLECULE
*****
 31 33 0 0 0
SMALL
GASTEIGER

@<TRIPOS>ATOM
      1 N         138.1594  141.3209  161.9948 N.3     1  UNL1       -0.2700
      2 C         137.8995  140.0568  161.2303 C.3     1  UNL1        0.0579
      3 C         137.7939  138.7489  161.9571 C.3     1  UNL1        0.0173
      4 C         137.7453  140.1006  159.7389 C.3     1  UNL1        0.0173
      5 C         139.0026  142.4037  161.3893 C.3     1  UNL1        0.0771
      6 C         140.4714  142.1820  161.1801 C.3     1  UNL1        0.0465
      7 C         142.0823  144.6584  162.5664 C.3     1  UNL1        0.0537
      8 C         142.1314  143.2228  162.9984 C.ar    1  UNL1        0.0768
      9 N         142.9295  142.6734  164.1435 N.ar    1  UNL1       -0.1698
     10 N         142.6823  141.1956  164.2139 N.ar    1  UNL1       -0.2288
     11 C         143.2002  140.1343  165.1388 C.ar    1  UNL1        0.1003
     12 C         142.7672  138.7091  164.9622 C.ar    1  UNL1        0.0207
     13 C         141.8163  138.3452  163.8607 C.ar    1  UNL1        0.0031
     14 C         141.2984  139.4064  162.9358 C.ar    1  UNL1        0.0189
     15 C         141.7314  140.8316  163.1124 C.ar    1  UNL1        0.0801
     16 C         141.3909  142.0845  162.3612 C.ar    1  UNL1        0.0121
     17 C         137.5761  141.5023  163.3648 C.3     1  UNL1        0.0991
     18 C         138.4676  141.4641  164.5705 C.ar    1  UNL1       -0.0061
     19 C         138.6996  140.1691  165.2910 C.ar    1  UNL1       -0.0029
     20 C         139.5911  140.1310  166.4968 C.ar    1  UNL1       -0.0003
     21 C         140.2507  141.3877  166.9819 C.ar    1  UNL1        0.0001
     22 C         140.0188  142.6827  166.2614 C.ar    1  UNL1       -0.0003
     23 C         139.1273  142.7209  165.0557 C.ar    1  UNL1       -0.0029
     24 C         141.1422  141.3495  168.1877 C.2     1  UNL1        0.0047
     25 C         140.9474  140.2896  169.2310 C.2     1  UNL1        0.0598
     26 C         141.8389  140.2514  170.4368 C.2     1  UNL1        0.2679
     27 O         141.4849  141.0490  171.6568 O.2     1  UNL1       -0.2681
     28 N         143.0843  139.4155  170.4226 N.am    1  UNL1       -0.1934
     29 O         143.9757  139.3772  171.6284 O.3     1  UNL1       -0.2949
     30 H         143.3167  138.8919  169.6219 H       1  UNL1        0.1825
     31 H         143.6049  139.9440  172.3228 H       1  UNL1        0.2414
@<TRIPOS>BOND
     1     7     8    1
     2     8     9   ar
     3     9    10   ar
     4    10    11   ar
     5    11    12   ar
     6    12    13   ar
     7    13    14   ar
     8    14    15   ar
     9    15    16   ar
    10    16     6    1
    11     6     5    1
    12     5     1    1
    13     1    17    1
    14    17    18    1
    15    18    19   ar
    16    19    20   ar
    17    20    21   ar
    18    21    24    1
    19    24    25    2
    20    25    26    1
    21    26    27    2
    22    26    28   am
    23    28    29    1
    24    21    22   ar
    25    22    23   ar
    26     1     2    1
    27     2     3    1
    28     2     4    1
    29    16     8   ar
    30    23    18   ar
    31    15    10   ar
    32    28    30    1
    33    29    31    1
@<TRIPOS>MOLECULE
*****
 31 33 0 0 0
SMALL
GASTEIGER

@<TRIPOS>ATOM
      1 N         141.3301  138.3213  161.2869 N.3     1  UNL1       -0.2700
      2 C         142.6057  138.0580  160.5430 C.3     1  UNL1        0.0579
      3 C         142.6152  138.0689  159.0430 C.3     1  UNL1        0.0173
      4 C         143.8719  137.7837  161.2990 C.3     1  UNL1        0.0173
      5 C         140.4518  139.4695  160.8867 C.3     1  UNL1        0.0771
      6 C         141.0013  140.8653  160.8745 C.3     1  UNL1        0.0465
      7 C         144.1863  141.3016  161.4357 C.3     1  UNL1        0.0537
      8 C         143.0700  141.6447  162.3771 C.ar    1  UNL1        0.0768
      9 N         143.2218  142.2485  163.7418 N.ar    1  UNL1       -0.1698
     10 N         141.8516  142.4212  164.3273 N.ar    1  UNL1       -0.2288
     11 C         141.3842  142.9669  165.6440 C.ar    1  UNL1        0.1003
     12 C         139.9183  143.0154  165.9579 C.ar    1  UNL1        0.0207
     13 C         138.9197  142.5182  164.9550 C.ar    1  UNL1        0.0031
     14 C         139.3871  141.9726  163.6383 C.ar    1  UNL1        0.0189
     15 C         140.8530  141.9240  163.3244 C.ar    1  UNL1        0.0801
     16 C         141.6061  141.4441  162.1192 C.ar    1  UNL1        0.0121
     17 C         140.9327  137.4364  162.4310 C.3     1  UNL1        0.0991
     18 C         140.5043  138.0427  163.7344 C.ar    1  UNL1       -0.0061
     19 C         141.5274  138.6311  164.6601 C.ar    1  UNL1       -0.0029
     20 C         141.0989  139.2374  165.9635 C.ar    1  UNL1       -0.0003
     21 C         139.6474  139.2554  166.3411 C.ar    1  UNL1        0.0001
     22 C         138.6242  138.6671  165.4154 C.ar    1  UNL1       -0.0003
     23 C         139.0526  138.0607  164.1120 C.ar    1  UNL1       -0.0029
     24 C         139.2190  139.8618  167.6445 C.2     1  UNL1        0.0047
     25 C         140.2451  140.2190  168.6786 C.2     1  UNL1        0.0598
     26 C         139.8168  140.8254  169.9821 C.2     1  UNL1        0.2679
     27 O         138.3911  140.7049  170.4327 O.2     1  UNL1       -0.2681
     28 N         140.8140  141.5522  170.8349 N.am    1  UNL1       -0.1934
     29 O         140.3856  142.1586  172.1383 O.3     1  UNL1       -0.2949
     30 H         141.7497  141.6313  170.5391 H       1  UNL1        0.1825
     31 H         139.4404  141.9910  172.2776 H       1  UNL1        0.2414
@<TRIPOS>BOND
     1     7     8    1
     2     8     9   ar
     3     9    10   ar
     4    10    11   ar
     5    11    12   ar
     6    12    13   ar
     7    13    14   ar
     8    14    15   ar
     9    15    16   ar
    10    16     6    1
    11     6     5    1
    12     5     1    1
    13     1    17    1
    14    17    18    1
    15    18    19   ar
    16    19    20   ar
    17    20    21   ar
    18    21    24    1
    19    24    25    2
    20    25    26    1
    21    26    27    2
    22    26    28   am
    23    28    29    1
    24    21    22   ar
    25    22    23   ar
    26     1     2    1
    27     2     3    1
    28     2     4    1
    29    16     8   ar
    30    23    18   ar
    31    15    10   ar
    32    28    30    1
    33    29    31    1
@<TRIPOS>MOLECULE
*****
 31 33 0 0 0
SMALL
GASTEIGER

@<TRIPOS>ATOM
      1 N         141.2134  137.9710  161.8993 N.3     1  UNL1       -0.2700
      2 C         142.5203  137.9731  161.1632 C.3     1  UNL1        0.0579
      3 C         142.5366  137.9342  159.6638 C.3     1  UNL1        0.0173
      4 C         143.8109  138.0142  161.9265 C.3     1  UNL1        0.0173
      5 C         140.0232  138.6737  161.3166 C.3     1  UNL1        0.0771
      6 C         140.0023  140.1715  161.2349 C.3     1  UNL1        0.0465
      7 C         137.3439  141.1711  162.8422 C.3     1  UNL1        0.0537
      8 C         138.7658  141.4504  163.2300 C.ar    1  UNL1        0.0768
      9 N         139.2154  142.2383  164.4246 N.ar    1  UNL1       -0.1698
     10 N         140.7151  142.2657  164.4242 N.ar    1  UNL1       -0.2288
     11 C         141.7078  142.8930  165.3575 C.ar    1  UNL1        0.1003
     12 C         143.1777  142.7494  165.0958 C.ar    1  UNL1        0.0207
     13 C         143.6551  141.9785  163.9009 C.ar    1  UNL1        0.0031
     14 C         142.6624  141.3512  162.9676 C.ar    1  UNL1        0.0189
     15 C         141.1924  141.4948  163.2293 C.ar    1  UNL1        0.0801
     16 C         139.9877  140.9909  162.4912 C.ar    1  UNL1        0.0121
     17 C         141.0966  137.2660  163.2182 C.3     1  UNL1        0.0991
     18 C         140.7124  138.0345  164.4478 C.ar    1  UNL1       -0.0061
     19 C         139.2668  138.1778  164.8216 C.ar    1  UNL1       -0.0029
     20 C         138.8828  138.9462  166.0512 C.ar    1  UNL1       -0.0003
     21 C         139.9442  139.5714  166.9071 C.ar    1  UNL1        0.0001
     22 C         141.3898  139.4281  166.5333 C.ar    1  UNL1       -0.0003
     23 C         141.7740  138.6597  165.3037 C.ar    1  UNL1       -0.0029
     24 C         139.5601  140.3398  168.1367 C.2     1  UNL1        0.0047
     25 C         140.5518  140.5225  169.2472 C.2     1  UNL1        0.0598
     26 C         140.1677  141.2909  170.4768 C.2     1  UNL1        0.2679
     27 O         140.6387  140.8325  171.8252 O.2     1  UNL1       -0.2681
     28 N         139.3128  142.5177  170.3582 N.am    1  UNL1       -0.1934
     29 O         138.9288  143.2861  171.5879 O.3     1  UNL1       -0.2949
     30 H         139.0037  142.8186  169.4732 H       1  UNL1        0.1825
     31 H         139.3128  142.8585  172.3694 H       1  UNL1        0.2414
@<TRIPOS>BOND
     1     7     8    1
     2     8     9   ar
     3     9    10   ar
     4    10    11   ar
     5    11    12   ar
     6    12    13   ar
     7    13    14   ar
     8    14    15   ar
     9    15    16   ar
    10    16     6    1
    11     6     5    1
    12     5     1    1
    13     1    17    1
    14    17    18    1
    15    18    19   ar
    16    19    20   ar
    17    20    21   ar
    18    21    24    1
    19    24    25    2
    20    25    26    1
    21    26    27    2
    22    26    28   am
    23    28    29    1
    24    21    22   ar
    25    22    23   ar
    26     1     2    1
    27     2     3    1
    28     2     4    1
    29    16     8   ar
    30    23    18   ar
    31    15    10   ar
    32    28    30    1
    33    29    31    1
@<TRIPOS>MOLECULE
*****
 31 33 0 0 0
SMALL
GASTEIGER

@<TRIPOS>ATOM
      1 N         142.4808  144.3320  161.3785 N.3     1  UNL1       -0.2700
      2 C         141.3070  144.8422  160.5962 C.3     1  UNL1        0.0579
      3 C         141.4421  145.1026  159.1251 C.3     1  UNL1        0.0173
      4 C         139.9982  145.0921  161.2850 C.3     1  UNL1        0.0173
      5 C         143.3169  143.2129  160.8321 C.3     1  UNL1        0.0771
      6 C         142.7152  141.8525  160.6388 C.3     1  UNL1        0.0465
      7 C         139.5460  141.4018  161.2735 C.3     1  UNL1        0.0537
      8 C         140.6912  140.9025  162.1037 C.ar    1  UNL1        0.0768
      9 N         140.5808  140.1084  163.3714 N.ar    1  UNL1       -0.1698
     10 N         141.9692  139.8247  163.8632 N.ar    1  UNL1       -0.2288
     11 C         142.4766  139.0829  165.0641 C.ar    1  UNL1        0.1003
     12 C         143.9526  138.9600  165.3012 C.ar    1  UNL1        0.0207
     13 C         144.9212  139.5788  164.3374 C.ar    1  UNL1        0.0031
     14 C         144.4138  140.3206  163.1365 C.ar    1  UNL1        0.0189
     15 C         142.9378  140.4436  162.8994 C.ar    1  UNL1        0.0801
     16 C         142.1479  141.1096  161.8120 C.ar    1  UNL1        0.0121
     17 C         142.8185  144.9409  162.7071 C.3     1  UNL1        0.0991
     18 C         142.7489  144.1084  163.9529 C.ar    1  UNL1       -0.0061
     19 C         144.0092  143.7262  164.6709 C.ar    1  UNL1       -0.0029
     20 C         143.9395  142.8937  165.9168 C.ar    1  UNL1       -0.0003
     21 C         142.6097  142.4434  166.4446 C.ar    1  UNL1        0.0001
     22 C         141.3494  142.8256  165.7266 C.ar    1  UNL1       -0.0003
     23 C         141.4189  143.6581  164.4808 C.ar    1  UNL1       -0.0029
     24 C         142.5401  141.6109  167.6905 C.2     1  UNL1        0.0047
     25 C         142.9187  142.2079  169.0134 C.2     1  UNL1        0.0598
     26 C         142.8492  141.3755  170.2594 C.2     1  UNL1        0.2679
     27 O         141.7450  141.5988  171.2498 O.2     1  UNL1       -0.2681
     28 N         143.8837  140.3199  170.5149 N.am    1  UNL1       -0.1934
     29 O         143.8141  139.4875  171.7608 O.3     1  UNL1       -0.2949
     30 H         144.6084  140.1733  169.8648 H       1  UNL1        0.1825
     31 H         143.0462  139.7583  172.2881 H       1  UNL1        0.2414
@<TRIPOS>BOND
     1     7     8    1
     2     8     9   ar
     3     9    10   ar
     4    10    11   ar
     5    11    12   ar
     6    12    13   ar
     7    13    14   ar
     8    14    15   ar
     9    15    16   ar
    10    16     6    1
    11     6     5    1
    12     5     1    1
    13     1    17    1
    14    17    18    1
    15    18    19   ar
    16    19    20   ar
    17    20    21   ar
    18    21    24    1
    19    24    25    2
    20    25    26    1
    21    26    27    2
    22    26    28   am
    23    28    29    1
    24    21    22   ar
    25    22    23   ar
    26     1     2    1
    27     2     3    1
    28     2     4    1
    29    16     8   ar
    30    23    18   ar
    31    15    10   ar
    32    28    30    1
    33    29    31    1
