@<TRIPOS>MOLECULE
*****
 27 30 0 0 0
SMALL
GASTEIGER

@<TRIPOS>ATOM
      1 C         140.9685  142.4142  168.0970 C.ar    1  UNL1       -0.0168
      2 C         142.4138  142.0775  167.8783 C.ar    1  UNL1       -0.0041
      3 C         142.9991  142.1444  166.4988 C.ar    1  UNL1       -0.0003
      4 C         142.1391  142.5481  165.3380 C.ar    1  UNL1       -0.0003
      5 C         140.6938  142.8848  165.5567 C.ar    1  UNL1       -0.0032
      6 C         140.1086  142.8179  166.9362 C.ar    1  UNL1       -0.0044
      7 C         139.8338  143.2885  164.3959 C.2     1  UNL1       -0.0011
      8 C         139.8544  144.7055  163.9042 C.2     1  UNL1        0.0472
      9 C         138.9944  145.1091  162.7434 C.2     1  UNL1        0.2354
     10 N         138.1138  144.0958  162.0744 N.2     1  UNL1       -0.0320
     11 C         138.0931  142.6789  162.5661 C.2     1  UNL1        0.3872
     12 N         137.3325  141.4691  162.1100 N.2     1  UNL1        0.0820
     13 N         137.7224  140.3178  162.9889 N.2     1  UNL1       -0.0337
     14 C         138.7240  140.8160  163.9882 C.2     1  UNL1        0.1921
     15 C         138.9531  142.2752  163.7268 C.3     1  UNL1        0.1845
     16 C         139.3812  139.9985  165.0605 C.3     1  UNL1        0.4355
     17 F         140.0382  139.1811  166.1329 F       1  UNL1       -0.1645
     18 F         138.1532  140.1286  165.9121 F       1  UNL1       -0.1645
     19 F         140.5965  139.7070  164.5504 F       1  UNL1       -0.1645
     20 C         140.3832  142.3473  169.4765 C.3     1  UNL1        0.0877
     21 C         139.8300  140.9858  169.1757 C.3     1  UNL1        0.1498
     22 O         139.2447  140.9189  170.5551 O.3     1  UNL1       -0.3528
     23 C         139.7980  142.2803  170.8559 C.3     1  UNL1        0.1498
     24 N         140.0341  144.7858  170.3021 N.3     1  UNL1       -0.3207
     25 C         140.9365  143.7087  169.7772 C.3     1  UNL1        0.0741
     26 H         140.5731  145.6391  170.4495 H       1  UNL1        0.1189
     27 H         139.6247  144.4852  171.1867 H       1  UNL1        0.1189
@<TRIPOS>BOND
     1    24    25    1
     2    25    20    1
     3    20     1    1
     4     1     2   ar
     5     2     3   ar
     6     3     4   ar
     7     4     5   ar
     8     5     7    1
     9     7     8    2
    10     8     9    1
    11     9    10    2
    12    10    11    1
    13    11    12    2
    14    12    13    1
    15    13    14    2
    16    14    16    1
    17    16    17    1
    18    16    18    1
    19    16    19    1
    20    14    15    1
    21     5     6   ar
    22    20    21    1
    23    21    22    1
    24    22    23    1
    25    23    20    1
    26     6     1   ar
    27    15     7    1
    28    15    11    1
    29    24    26    1
    30    24    27    1
@<TRIPOS>MOLECULE
*****
 27 30 0 0 0
SMALL
GASTEIGER

@<TRIPOS>ATOM
      1 C         140.1723  141.6162  168.4394 C.ar    1  UNL1       -0.0168
      2 C         139.6403  140.2651  168.0631 C.ar    1  UNL1       -0.0041
      3 C         139.3544  139.9454  166.6257 C.ar    1  UNL1       -0.0003
      4 C         139.6006  140.9767  165.5646 C.ar    1  UNL1       -0.0003
      5 C         140.1325  142.3277  165.9410 C.ar    1  UNL1       -0.0032
      6 C         140.4184  142.6475  167.3783 C.ar    1  UNL1       -0.0044
      7 C         140.3787  143.3591  164.8799 C.2     1  UNL1       -0.0011
      8 C         139.2381  144.1759  164.3489 C.2     1  UNL1        0.0472
      9 C         139.4843  145.2071  163.2879 C.2     1  UNL1        0.2354
     10 N         140.8710  145.4217  162.7579 N.2     1  UNL1       -0.0320
     11 C         142.0116  144.6049  163.2888 C.2     1  UNL1        0.3872
     12 N         143.4754  144.5929  162.9615 N.2     1  UNL1        0.0820
     13 N         144.1339  143.5542  163.8202 N.2     1  UNL1       -0.0337
     14 C         143.0771  142.9242  164.6783 C.2     1  UNL1        0.1921
     15 C         141.7654  143.5736  164.3498 C.3     1  UNL1        0.1845
     16 C         143.2939  141.8359  165.6875 C.3     1  UNL1        0.4355
     17 F         143.5106  140.7477  166.6969 F       1  UNL1       -0.1645
     18 F         143.7576  142.8545  166.6862 F       1  UNL1       -0.1645
     19 F         142.9362  140.7095  165.0353 F       1  UNL1       -0.1645
     20 C         140.4582  141.9360  169.8767 C.3     1  UNL1        0.0877
     21 C         140.2326  140.4986  170.2414 C.3     1  UNL1        0.1498
     22 O         140.5185  140.8183  171.6788 O.3     1  UNL1       -0.3528
     23 C         140.7441  142.2557  171.3141 C.3     1  UNL1        0.1498
     24 N         140.0732  144.4627  170.3429 N.3     1  UNL1       -0.3207
     25 C         140.6839  143.3734  169.5121 C.3     1  UNL1        0.0741
     26 H         140.3279  145.3705  169.9538 H       1  UNL1        0.1189
     27 H         140.4184  144.3942  171.3003 H       1  UNL1        0.1189
@<TRIPOS>BOND
     1    24    25    1
     2    25    20    1
     3    20     1    1
     4     1     2   ar
     5     2     3   ar
     6     3     4   ar
     7     4     5   ar
     8     5     7    1
     9     7     8    2
    10     8     9    1
    11     9    10    2
    12    10    11    1
    13    11    12    2
    14    12    13    1
    15    13    14    2
    16    14    16    1
    17    16    17    1
    18    16    18    1
    19    16    19    1
    20    14    15    1
    21     5     6   ar
    22    20    21    1
    23    21    22    1
    24    22    23    1
    25    23    20    1
    26     6     1   ar
    27    15     7    1
    28    15    11    1
    29    24    26    1
    30    24    27    1
@<TRIPOS>MOLECULE
*****
 27 30 0 0 0
SMALL
GASTEIGER

@<TRIPOS>ATOM
      1 C         140.8908  142.0141  168.1076 C.ar    1  UNL1       -0.0168
      2 C         140.4902  140.5704  168.1813 C.ar    1  UNL1       -0.0041
      3 C         139.7301  139.9443  167.0499 C.ar    1  UNL1       -0.0003
      4 C         139.3706  140.7619  165.8447 C.ar    1  UNL1       -0.0003
      5 C         139.7711  142.2055  165.7710 C.ar    1  UNL1       -0.0032
      6 C         140.5312  142.8316  166.9025 C.ar    1  UNL1       -0.0044
      7 C         139.4116  143.0231  164.5659 C.2     1  UNL1       -0.0011
      8 C         138.0104  143.5301  164.3944 C.2     1  UNL1        0.0472
      9 C         137.6509  144.3477  163.1893 C.2     1  UNL1        0.2354
     10 N         138.6926  144.6582  162.1557 N.2     1  UNL1       -0.0320
     11 C         140.0939  144.1512  162.3272 C.2     1  UNL1        0.3872
     12 N         141.3242  144.2959  161.4814 N.2     1  UNL1        0.0820
     13 N         142.4441  143.5678  162.1639 N.2     1  UNL1       -0.0337
     14 C         141.9059  142.9731  163.4314 C.2     1  UNL1        0.1921
     15 C         140.4533  143.3337  163.5323 C.3     1  UNL1        0.1845
     16 C         142.6836  142.1605  164.4237 C.3     1  UNL1        0.4355
     17 F         143.4614  141.3480  165.4161 F       1  UNL1       -0.1645
     18 F         143.2204  143.4208  165.0349 F       1  UNL1       -0.1645
     19 F         142.3843  140.8831  164.1061 F       1  UNL1       -0.1645
     20 C         141.6509  142.6402  169.2391 C.3     1  UNL1        0.0877
     21 C         142.9397  142.1657  168.6359 C.3     1  UNL1        0.1498
     22 O         143.6998  142.7918  169.7674 O.3     1  UNL1       -0.3528
     23 C         142.4110  143.2663  170.3706 C.3     1  UNL1        0.1498
     24 N         140.1917  144.5598  170.2065 N.3     1  UNL1       -0.3207
     25 C         140.3621  143.1148  169.8423 C.3     1  UNL1        0.0741
     26 H         139.2621  144.7038  170.6008 H       1  UNL1        0.1189
     27 H         140.2999  145.1359  169.3717 H       1  UNL1        0.1189
@<TRIPOS>BOND
     1    24    25    1
     2    25    20    1
     3    20     1    1
     4     1     2   ar
     5     2     3   ar
     6     3     4   ar
     7     4     5   ar
     8     5     7    1
     9     7     8    2
    10     8     9    1
    11     9    10    2
    12    10    11    1
    13    11    12    2
    14    12    13    1
    15    13    14    2
    16    14    16    1
    17    16    17    1
    18    16    18    1
    19    16    19    1
    20    14    15    1
    21     5     6   ar
    22    20    21    1
    23    21    22    1
    24    22    23    1
    25    23    20    1
    26     6     1   ar
    27    15     7    1
    28    15    11    1
    29    24    26    1
    30    24    27    1
@<TRIPOS>MOLECULE
*****
 27 30 0 0 0
SMALL
GASTEIGER

@<TRIPOS>ATOM
      1 C         139.6927  140.3024  165.6813 C.ar    1  UNL1       -0.0168
      2 C         139.8078  140.9370  167.0356 C.ar    1  UNL1       -0.0041
      3 C         140.4282  142.2953  167.1771 C.ar    1  UNL1       -0.0003
      4 C         140.9336  143.0190  165.9642 C.ar    1  UNL1       -0.0003
      5 C         140.8186  142.3844  164.6100 C.ar    1  UNL1       -0.0032
      6 C         140.1981  141.0261  164.4685 C.ar    1  UNL1       -0.0044
      7 C         141.3240  143.1081  163.3972 C.2     1  UNL1       -0.0011
      8 C         142.7020  142.8268  162.8760 C.2     1  UNL1        0.0472
      9 C         143.2074  143.5505  161.6632 C.2     1  UNL1        0.2354
     10 N         142.3346  144.5555  160.9716 N.2     1  UNL1       -0.0320
     11 C         140.9565  144.8368  161.4929 C.2     1  UNL1        0.3872
     12 N         139.8768  145.7668  161.0246 N.2     1  UNL1        0.0820
     13 N         138.7041  145.6178  161.9480 N.2     1  UNL1       -0.0337
     14 C         139.0591  144.5958  162.9869 C.2     1  UNL1        0.1921
     15 C         140.4512  144.1132  162.7056 C.3     1  UNL1        0.1845
     16 C         138.1769  144.1370  164.1100 C.3     1  UNL1        0.4355
     17 F         137.2948  143.6783  165.2331 F       1  UNL1       -0.1645
     18 F         138.7303  145.2206  164.9872 F       1  UNL1       -0.1645
     19 F         137.5016  143.0909  163.5885 F       1  UNL1       -0.1645
     20 C         139.0723  138.9441  165.5398 C.3     1  UNL1        0.0877
     21 C         139.7469  138.7743  164.2108 C.3     1  UNL1        0.1498
     22 O         139.1265  137.4160  164.0693 O.3     1  UNL1       -0.3528
     23 C         138.4519  137.5857  165.3983 C.3     1  UNL1        0.1498
     24 N         137.3015  138.1756  167.2786 N.3     1  UNL1       -0.3207
     25 C         138.3977  139.1138  166.8687 C.3     1  UNL1        0.0741
     26 H         136.9594  138.4358  168.2036 H       1  UNL1        0.1189
     27 H         137.6625  137.2220  167.3055 H       1  UNL1        0.1189
@<TRIPOS>BOND
     1    24    25    1
     2    25    20    1
     3    20     1    1
     4     1     2   ar
     5     2     3   ar
     6     3     4   ar
     7     4     5   ar
     8     5     7    1
     9     7     8    2
    10     8     9    1
    11     9    10    2
    12    10    11    1
    13    11    12    2
    14    12    13    1
    15    13    14    2
    16    14    16    1
    17    16    17    1
    18    16    18    1
    19    16    19    1
    20    14    15    1
    21     5     6   ar
    22    20    21    1
    23    21    22    1
    24    22    23    1
    25    23    20    1
    26     6     1   ar
    27    15     7    1
    28    15    11    1
    29    24    26    1
    30    24    27    1
@<TRIPOS>MOLECULE
*****
 27 30 0 0 0
SMALL
GASTEIGER

@<TRIPOS>ATOM
      1 C         140.2130  141.5353  167.9392 C.ar    1  UNL1       -0.0168
      2 C         139.6117  140.2762  167.3884 C.ar    1  UNL1       -0.0041
      3 C         139.7244  139.9692  165.9245 C.ar    1  UNL1       -0.0003
      4 C         140.4383  140.9214  165.0113 C.ar    1  UNL1       -0.0003
      5 C         141.0395  142.1804  165.5621 C.ar    1  UNL1       -0.0032
      6 C         140.9268  142.4874  167.0260 C.ar    1  UNL1       -0.0044
      7 C         141.7533  143.1326  164.6489 C.2     1  UNL1       -0.0011
      8 C         143.2526  143.1502  164.6074 C.2     1  UNL1        0.0472
      9 C         143.9664  144.1023  163.6942 C.2     1  UNL1        0.2354
     10 N         143.1810  145.0368  162.8225 N.2     1  UNL1       -0.0320
     11 C         141.6817  145.0191  162.8640 C.2     1  UNL1        0.3872
     12 N         140.6477  145.8168  162.1261 N.2     1  UNL1        0.0820
     13 N         139.2948  145.3576  162.5831 N.2     1  UNL1       -0.0337
     14 C         139.4926  144.2762  163.6036 C.2     1  UNL1        0.1921
     15 C         140.9679  144.0670  163.7772 C.3     1  UNL1        0.1845
     16 C         138.4061  143.5342  164.3240 C.3     1  UNL1        0.4355
     17 F         137.3197  142.7923  165.0444 F       1  UNL1       -0.1645
     18 F         138.5556  144.4555  165.4982 F       1  UNL1       -0.1645
     19 F         138.0390  142.5682  163.4555 F       1  UNL1       -0.1645
     20 C         140.1003  141.8423  169.4031 C.3     1  UNL1        0.0877
     21 C         140.5030  143.2623  169.1363 C.3     1  UNL1        0.1498
     22 O         140.3904  143.5693  170.6002 O.3     1  UNL1       -0.3528
     23 C         139.9877  142.1492  170.8670 C.3     1  UNL1        0.1498
     24 N         139.9083  139.8257  171.0299 N.3     1  UNL1       -0.3207
     25 C         139.6976  140.4222  169.6699 C.3     1  UNL1        0.0741
     26 H         139.5800  138.8600  171.0322 H       1  UNL1        0.1189
     27 H         139.3867  140.3639  171.7217 H       1  UNL1        0.1189
@<TRIPOS>BOND
     1    24    25    1
     2    25    20    1
     3    20     1    1
     4     1     2   ar
     5     2     3   ar
     6     3     4   ar
     7     4     5   ar
     8     5     7    1
     9     7     8    2
    10     8     9    1
    11     9    10    2
    12    10    11    1
    13    11    12    2
    14    12    13    1
    15    13    14    2
    16    14    16    1
    17    16    17    1
    18    16    18    1
    19    16    19    1
    20    14    15    1
    21     5     6   ar
    22    20    21    1
    23    21    22    1
    24    22    23    1
    25    23    20    1
    26     6     1   ar
    27    15     7    1
    28    15    11    1
    29    24    26    1
    30    24    27    1
@<TRIPOS>MOLECULE
*****
 27 30 0 0 0
SMALL
GASTEIGER

@<TRIPOS>ATOM
      1 C         141.4158  142.1183  168.4226 C.ar    1  UNL1       -0.0168
      2 C         142.8551  142.2016  168.0085 C.ar    1  UNL1       -0.0041
      3 C         143.2094  142.4241  166.5680 C.ar    1  UNL1       -0.0003
      4 C         142.1243  142.5634  165.5417 C.ar    1  UNL1       -0.0003
      5 C         140.6850  142.4802  165.9558 C.ar    1  UNL1       -0.0032
      6 C         140.3308  142.2576  167.3963 C.ar    1  UNL1       -0.0044
      7 C         139.5999  142.6195  164.9295 C.2     1  UNL1       -0.0011
      8 C         139.0416  143.9739  164.6075 C.2     1  UNL1        0.0472
      9 C         137.9566  144.1132  163.5812 C.2     1  UNL1        0.2354
     10 N         137.4299  142.8980  162.8770 N.2     1  UNL1       -0.0320
     11 C         137.9882  141.5436  163.1990 C.2     1  UNL1        0.3872
     12 N         137.6704  140.1756  162.6720 N.2     1  UNL1        0.0820
     13 N         138.5590  139.1909  163.3726 N.2     1  UNL1       -0.0337
     14 C         139.4260  139.9503  164.3326 C.2     1  UNL1        0.1921
     15 C         139.0733  141.4043  164.2253 C.3     1  UNL1        0.1845
     16 C         140.4636  139.3594  165.2405 C.3     1  UNL1        0.4355
     17 F         141.5013  138.7686  166.1483 F       1  UNL1       -0.1645
     18 F         141.4782  139.4497  164.1394 F       1  UNL1       -0.1645
     19 F         139.8035  139.1519  166.3996 F       1  UNL1       -0.1645
     20 C         141.0615  141.8958  169.8631 C.3     1  UNL1        0.0877
     21 C         142.2842  142.6574  170.2815 C.3     1  UNL1        0.1498
     22 O         141.9299  142.4349  171.7219 O.3     1  UNL1       -0.3528
     23 C         140.7073  141.6732  171.3036 C.3     1  UNL1        0.1498
     24 N         139.2519  140.0983  170.3570 N.3     1  UNL1       -0.3207
     25 C         139.8389  141.1341  169.4447 C.3     1  UNL1        0.0741
     26 H         138.4310  139.6831  169.9164 H       1  UNL1        0.1189
     27 H         138.9805  140.5354  171.2378 H       1  UNL1        0.1189
@<TRIPOS>BOND
     1    24    25    1
     2    25    20    1
     3    20     1    1
     4     1     2   ar
     5     2     3   ar
     6     3     4   ar
     7     4     5   ar
     8     5     7    1
     9     7     8    2
    10     8     9    1
    11     9    10    2
    12    10    11    1
    13    11    12    2
    14    12    13    1
    15    13    14    2
    16    14    16    1
    17    16    17    1
    18    16    18    1
    19    16    19    1
    20    14    15    1
    21     5     6   ar
    22    20    21    1
    23    21    22    1
    24    22    23    1
    25    23    20    1
    26     6     1   ar
    27    15     7    1
    28    15    11    1
    29    24    26    1
    30    24    27    1
@<TRIPOS>MOLECULE
*****
 27 30 0 0 0
SMALL
GASTEIGER

@<TRIPOS>ATOM
      1 C         139.3889  140.0222  166.4668 C.ar    1  UNL1       -0.0168
      2 C         139.6395  140.3160  167.9163 C.ar    1  UNL1       -0.0041
      3 C         140.1369  141.6686  168.3323 C.ar    1  UNL1       -0.0003
      4 C         140.3838  142.7274  167.2988 C.ar    1  UNL1       -0.0003
      5 C         140.1332  142.4336  165.8494 C.ar    1  UNL1       -0.0032
      6 C         139.6357  141.0810  165.4334 C.ar    1  UNL1       -0.0044
      7 C         140.3800  143.4924  164.8158 C.2     1  UNL1       -0.0011
      8 C         139.2276  144.2583  164.2367 C.2     1  UNL1        0.0472
      9 C         139.4745  145.3171  163.2033 C.2     1  UNL1        0.2354
     10 N         140.8737  145.6099  162.7490 N.2     1  UNL1       -0.0320
     11 C         142.0261  144.8440  163.3281 C.2     1  UNL1        0.3872
     12 N         143.5034  144.9114  163.0773 N.2     1  UNL1        0.0820
     13 N         144.1696  143.8943  163.9557 N.2     1  UNL1       -0.0337
     14 C         143.1040  143.1983  164.7495 C.2     1  UNL1        0.1921
     15 C         141.7792  143.7853  164.3615 C.3     1  UNL1        0.1845
     16 C         143.3244  142.1069  165.7546 C.3     1  UNL1        0.4355
     17 F         143.5448  141.0155  166.7597 F       1  UNL1       -0.1645
     18 F         142.9360  141.0838  164.7288 F       1  UNL1       -0.1645
     19 F         143.7116  142.7627  166.8692 F       1  UNL1       -0.1645
     20 C         138.8914  138.6696  166.0508 C.3     1  UNL1        0.0877
     21 C         140.0081  138.5653  165.0547 C.3     1  UNL1        0.1498
     22 O         139.5107  137.2127  164.6387 O.3     1  UNL1       -0.3528
     23 C         138.3940  137.3170  165.6348 C.3     1  UNL1        0.1498
     24 N         136.9646  137.5606  167.3951 N.3     1  UNL1       -0.3207
     25 C         137.7747  138.7740  167.0468 C.3     1  UNL1        0.0741
     26 H         136.2542  137.8120  168.0825 H       1  UNL1        0.1189
     27 H         137.5765  136.8437  167.7851 H       1  UNL1        0.1189
@<TRIPOS>BOND
     1    24    25    1
     2    25    20    1
     3    20     1    1
     4     1     2   ar
     5     2     3   ar
     6     3     4   ar
     7     4     5   ar
     8     5     7    1
     9     7     8    2
    10     8     9    1
    11     9    10    2
    12    10    11    1
    13    11    12    2
    14    12    13    1
    15    13    14    2
    16    14    16    1
    17    16    17    1
    18    16    18    1
    19    16    19    1
    20    14    15    1
    21     5     6   ar
    22    20    21    1
    23    21    22    1
    24    22    23    1
    25    23    20    1
    26     6     1   ar
    27    15     7    1
    28    15    11    1
    29    24    26    1
    30    24    27    1
@<TRIPOS>MOLECULE
*****
 27 30 0 0 0
SMALL
GASTEIGER

@<TRIPOS>ATOM
      1 C         141.6312  142.3775  168.4303 C.ar    1  UNL1       -0.0168
      2 C         140.3386  143.0026  167.9958 C.ar    1  UNL1       -0.0041
      3 C         140.0562  143.2038  166.5364 C.ar    1  UNL1       -0.0003
      4 C         141.0663  142.7800  165.5116 C.ar    1  UNL1       -0.0003
      5 C         142.3587  142.1550  165.9461 C.ar    1  UNL1       -0.0032
      6 C         142.6412  141.9537  167.4055 C.ar    1  UNL1       -0.0044
      7 C         143.3688  141.7312  164.9213 C.2     1  UNL1       -0.0011
      8 C         144.5107  142.6395  164.5734 C.2     1  UNL1        0.0472
      9 C         145.5207  142.2156  163.5486 C.2     1  UNL1        0.2354
     10 N         145.3888  140.8836  162.8717 N.2     1  UNL1       -0.0320
     11 C         144.2469  139.9753  163.2196 C.2     1  UNL1        0.3872
     12 N         143.8595  138.6142  162.7223 N.2     1  UNL1        0.0820
     13 N         142.6101  138.1968  163.4397 N.2     1  UNL1       -0.0337
     14 C         142.2252  139.3000  164.3804 C.2     1  UNL1        0.1921
     15 C         143.2369  140.3992  164.2444 C.3     1  UNL1        0.1845
     16 C         141.0374  139.3034  165.2964 C.3     1  UNL1        0.4355
     17 F         139.8496  139.3067  166.2124 F       1  UNL1       -0.1645
     18 F         141.9045  138.8242  166.4226 F       1  UNL1       -0.1645
     19 F         140.0215  139.7226  164.5124 F       1  UNL1       -0.1645
     20 C         141.9136  142.1762  169.8896 C.3     1  UNL1        0.0877
     21 C         140.4527  142.3293  170.1935 C.3     1  UNL1        0.1498
     22 O         140.7352  142.1281  171.6529 O.3     1  UNL1       -0.3528
     23 C         142.1961  141.9750  171.3490 C.3     1  UNL1        0.1498
     24 N         144.3819  142.8778  170.2962 N.3     1  UNL1       -0.3207
     25 C         143.3745  142.0231  169.5858 C.3     1  UNL1        0.0741
     26 H         145.3189  142.6418  169.9693 H       1  UNL1        0.1189
     27 H         144.3205  142.7119  171.3007 H       1  UNL1        0.1189
@<TRIPOS>BOND
     1    24    25    1
     2    25    20    1
     3    20     1    1
     4     1     2   ar
     5     2     3   ar
     6     3     4   ar
     7     4     5   ar
     8     5     7    1
     9     7     8    2
    10     8     9    1
    11     9    10    2
    12    10    11    1
    13    11    12    2
    14    12    13    1
    15    13    14    2
    16    14    16    1
    17    16    17    1
    18    16    18    1
    19    16    19    1
    20    14    15    1
    21     5     6   ar
    22    20    21    1
    23    21    22    1
    24    22    23    1
    25    23    20    1
    26     6     1   ar
    27    15     7    1
    28    15    11    1
    29    24    26    1
    30    24    27    1
@<TRIPOS>MOLECULE
*****
 27 30 0 0 0
SMALL
GASTEIGER

@<TRIPOS>ATOM
      1 C         140.7203  141.6556  167.9117 C.ar    1  UNL1       -0.0168
      2 C         142.1153  142.1136  167.6045 C.ar    1  UNL1       -0.0041
      3 C         142.7099  141.8519  166.2525 C.ar    1  UNL1       -0.0003
      4 C         141.9096  141.1322  165.2077 C.ar    1  UNL1       -0.0003
      5 C         140.5146  140.6743  165.5149 C.ar    1  UNL1       -0.0032
      6 C         139.9200  140.9359  166.8669 C.ar    1  UNL1       -0.0044
      7 C         139.7143  139.9546  164.4701 C.2     1  UNL1       -0.0011
      8 C         139.7727  138.4585  164.3790 C.2     1  UNL1        0.0472
      9 C         138.9724  137.7389  163.3343 C.2     1  UNL1        0.2354
     10 N         138.1136  138.5154  162.3805 N.2     1  UNL1       -0.0320
     11 C         138.0552  140.0115  162.4716 C.2     1  UNL1        0.3872
     12 N         137.3043  141.0369  161.6751 N.2     1  UNL1        0.0820
     13 N         137.6405  142.3904  162.2276 N.2     1  UNL1       -0.0337
     14 C         138.5992  142.2013  163.3656 C.2     1  UNL1        0.1921
     15 C         138.8555  140.7311  163.5164 C.3     1  UNL1        0.1845
     16 C         139.1968  143.2912  164.2053 C.3     1  UNL1        0.4355
     17 F         139.7944  144.3810  165.0450 F       1  UNL1       -0.1645
     18 F         140.3625  143.3762  163.2653 F       1  UNL1       -0.1645
     19 F         138.3089  143.4542  165.2090 F       1  UNL1       -0.1645
     20 C         140.1256  141.9172  169.2637 C.3     1  UNL1        0.0877
     21 C         140.6955  143.3046  169.2458 C.3     1  UNL1        0.1498
     22 O         140.1008  143.5663  170.5979 O.3     1  UNL1       -0.3528
     23 C         139.5310  142.1789  170.6157 C.3     1  UNL1        0.1498
     24 N         138.6695  140.0975  170.4119 N.3     1  UNL1       -0.3207
     25 C         139.5558  140.5298  169.2816 C.3     1  UNL1        0.0741
     26 H         138.3749  139.1324  170.2630 H       1  UNL1        0.1189
     27 H         137.8486  140.7016  170.4504 H       1  UNL1        0.1189
@<TRIPOS>BOND
     1    24    25    1
     2    25    20    1
     3    20     1    1
     4     1     2   ar
     5     2     3   ar
     6     3     4   ar
     7     4     5   ar
     8     5     7    1
     9     7     8    2
    10     8     9    1
    11     9    10    2
    12    10    11    1
    13    11    12    2
    14    12    13    1
    15    13    14    2
    16    14    16    1
    17    16    17    1
    18    16    18    1
    19    16    19    1
    20    14    15    1
    21     5     6   ar
    22    20    21    1
    23    21    22    1
    24    22    23    1
    25    23    20    1
    26     6     1   ar
    27    15     7    1
    28    15    11    1
    29    24    26    1
    30    24    27    1
