@<TRIPOS>MOLECULE
*****
 34 36 0 0 0
SMALL
GASTEIGER

@<TRIPOS>ATOM
      1 C         139.3804  140.1529  169.4118 C.ar    1  UNL1        0.0842
      2 C         140.0045  140.5797  168.1163 C.ar    1  UNL1        0.0146
      3 C         141.3008  141.2660  168.4302 C.ar    1  UNL1        0.0423
      4 C         142.3428  141.8930  167.5521 C.ar    1  UNL1        0.0870
      5 N         143.5620  142.5174  168.1635 N.ar    1  UNL1       -0.2139
      6 C         143.7391  142.5147  169.6531 C.ar    1  UNL1        0.2141
      7 N         144.9582  143.1391  170.2645 N.pl3   1  UNL1       -0.3274
      8 N         142.6970  141.8877  170.5311 N.ar    1  UNL1       -0.2074
      9 C         141.4779  141.2634  169.9197 C.ar    1  UNL1        0.1151
     10 S         140.2910  140.5754  170.5264 S.2     1  UNL1       -0.0633
     11 H         145.6422  143.5506  169.6882 H       1  UNL1        0.1452
     12 H         145.0745  143.1373  171.2421 H       1  UNL1        0.1452
     13 C         142.1657  141.8957  166.0626 C.ar    1  UNL1        0.0314
     14 C         141.5621  143.0878  165.3812 C.ar    1  UNL1        0.0401
     15 C         141.3850  143.0905  163.8917 C.ar    1  UNL1        0.1492
     16 C         141.8115  141.9010  163.0836 C.ar    1  UNL1        0.0924
     17 CL        141.6344  141.9036  161.5941 Cl      1  UNL1       -0.0791
     18 C         142.4151  140.7087  163.7650 C.ar    1  UNL1        0.0259
     19 C         142.5922  140.7060  165.2545 C.ar    1  UNL1        0.0601
     20 CL        143.1958  139.5138  165.9359 Cl      1  UNL1       -0.0822
     21 O         140.7814  144.2828  163.2103 O.3     1  UNL1       -0.4731
     22 C         139.4663  144.8296  163.6809 C.3     1  UNL1        0.2227
     23 C         138.1843  144.2160  163.2016 C.3     1  UNL1        0.1200
     24 N         138.0065  142.7269  163.2361 N.3     1  UNL1       -0.2696
     25 C         137.9465  141.9488  161.9551 C.3     1  UNL1        0.0722
     26 C         138.3337  142.6025  160.6618 C.3     1  UNL1        0.0188
     27 C         137.8888  142.0159  164.5517 C.3     1  UNL1        0.0722
     28 C         138.5069  140.6609  164.7299 C.3     1  UNL1        0.0188
     29 N         137.3690  139.4307  170.8893 N.am    1  UNL1       -0.3005
     30 C         138.0749  139.4304  169.5658 C.2     1  UNL1        0.2519
     31 O         137.4752  138.7077  168.3962 O.2     1  UNL1       -0.2696
     32 H         137.7626  139.9050  171.6570 H       1  UNL1        0.1498
     33 C         135.8764  137.7277  172.1630 C.3     1  UNL1        0.0230
     34 C         136.0635  138.7082  171.0432 C.3     1  UNL1        0.0898
@<TRIPOS>BOND
     1    33    34    1
     2    34    29    1
     3    29    30   am
     4    30    31    2
     5    30     1    1
     6     1     2   ar
     7     2     3   ar
     8     3     4   ar
     9     4    13    1
    10    13    14   ar
    11    14    15   ar
    12    15    21    1
    13    21    22    1
    14    22    23    1
    15    23    24    1
    16    24    25    1
    17    25    26    1
    18    24    27    1
    19    27    28    1
    20    15    16   ar
    21    16    17    1
    22    16    18   ar
    23    18    19   ar
    24    19    20    1
    25     4     5   ar
    26     5     6   ar
    27     6     7    1
    28     6     8   ar
    29     8     9   ar
    30     9    10   ar
    31    10     1   ar
    32     9     3   ar
    33    19    13   ar
    34    29    32    1
    35     7    11    1
    36     7    12    1
@<TRIPOS>MOLECULE
*****
 34 36 0 0 0
SMALL
GASTEIGER

@<TRIPOS>ATOM
      1 C         139.0514  139.9515  169.5228 C.ar    1  UNL1        0.0842
      2 C         139.6415  140.3014  168.1889 C.ar    1  UNL1        0.0146
      3 C         140.9514  140.9919  168.4281 C.ar    1  UNL1        0.0423
      4 C         141.9726  141.5606  167.4881 C.ar    1  UNL1        0.0870
      5 N         143.2135  142.2062  168.0300 N.ar    1  UNL1       -0.2139
      6 C         143.4330  142.2831  169.5118 C.ar    1  UNL1        0.2141
      7 N         144.6738  142.9287  170.0537 N.pl3   1  UNL1       -0.3274
      8 N         142.4117  141.7144  170.4518 N.ar    1  UNL1       -0.2074
      9 C         141.1709  141.0688  169.9100 C.ar    1  UNL1        0.1151
     10 S         139.9967  140.4258  170.5865 S.2     1  UNL1       -0.0633
     11 H         145.3441  143.3020  169.4367 H       1  UNL1        0.1452
     12 H         144.8179  142.9792  171.0263 H       1  UNL1        0.1452
     13 C         141.7531  141.4836  166.0063 C.ar    1  UNL1        0.0314
     14 C         142.4923  140.4648  165.1905 C.ar    1  UNL1        0.0401
     15 C         142.2727  140.3879  163.7086 C.ar    1  UNL1        0.1492
     16 C         141.3140  141.3298  163.0426 C.ar    1  UNL1        0.0924
     17 CL        141.0945  141.2529  161.5607 Cl      1  UNL1       -0.0791
     18 C         140.5748  142.3487  163.8584 C.ar    1  UNL1        0.0259
     19 C         140.7944  142.4256  165.3402 C.ar    1  UNL1        0.0601
     20 CL        140.0552  143.4445  166.1560 Cl      1  UNL1       -0.0822
     21 O         143.0119  139.3690  162.8928 O.3     1  UNL1       -0.4731
     22 C         142.4019  138.0214  162.6441 C.3     1  UNL1        0.2227
     23 C         141.2561  137.5493  163.4892 C.3     1  UNL1        0.1200
     24 N         139.8689  138.0531  163.2210 N.3     1  UNL1       -0.2696
     25 C         139.3070  137.9994  161.8313 C.3     1  UNL1        0.0722
     26 C         138.2531  138.9801  161.4101 C.3     1  UNL1        0.0188
     27 C         139.0435  138.6105  164.3427 C.3     1  UNL1        0.0722
     28 C         138.6609  137.7352  165.4992 C.3     1  UNL1        0.0188
     29 N         137.0972  139.2966  171.1046 N.am    1  UNL1       -0.3005
     30 C         137.7454  139.2504  169.7527 C.2     1  UNL1        0.2519
     31 O         137.0877  138.5032  168.6307 O.2     1  UNL1       -0.2696
     32 H         137.5289  139.7871  171.8410 H       1  UNL1        0.1498
     33 C         135.5515  137.8585  172.6188 C.3     1  UNL1        0.0230
     34 C         135.7912  138.5955  171.3344 C.3     1  UNL1        0.0898
@<TRIPOS>BOND
     1    33    34    1
     2    34    29    1
     3    29    30   am
     4    30    31    2
     5    30     1    1
     6     1     2   ar
     7     2     3   ar
     8     3     4   ar
     9     4    13    1
    10    13    14   ar
    11    14    15   ar
    12    15    21    1
    13    21    22    1
    14    22    23    1
    15    23    24    1
    16    24    25    1
    17    25    26    1
    18    24    27    1
    19    27    28    1
    20    15    16   ar
    21    16    17    1
    22    16    18   ar
    23    18    19   ar
    24    19    20    1
    25     4     5   ar
    26     5     6   ar
    27     6     7    1
    28     6     8   ar
    29     8     9   ar
    30     9    10   ar
    31    10     1   ar
    32     9     3   ar
    33    19    13   ar
    34    29    32    1
    35     7    11    1
    36     7    12    1
@<TRIPOS>MOLECULE
*****
 34 36 0 0 0
SMALL
GASTEIGER

@<TRIPOS>ATOM
      1 C         139.0359  139.9491  169.5457 C.ar    1  UNL1        0.0842
      2 C         139.6157  140.3075  168.2096 C.ar    1  UNL1        0.0146
      3 C         140.9284  140.9947  168.4431 C.ar    1  UNL1        0.0423
      4 C         141.9428  141.5687  167.4990 C.ar    1  UNL1        0.0870
      5 N         143.1888  142.2091  168.0354 N.ar    1  UNL1       -0.2139
      6 C         143.4202  142.2754  169.5159 C.ar    1  UNL1        0.2141
      7 N         144.6661  142.9157  170.0523 N.pl3   1  UNL1       -0.3274
      8 N         142.4057  141.7014  170.4601 N.ar    1  UNL1       -0.2074
      9 C         141.1599  141.0611  169.9237 C.ar    1  UNL1        0.1151
     10 S         139.9902  140.4148  170.6051 S.2     1  UNL1       -0.0633
     11 H         145.3319  143.2924  169.4327 H       1  UNL1        0.1452
     12 H         144.8180  142.9592  171.0241 H       1  UNL1        0.1452
     13 C         141.7114  141.5024  166.0184 C.ar    1  UNL1        0.0314
     14 C         140.7642  142.4635  165.3636 C.ar    1  UNL1        0.0401
     15 C         140.5327  142.3972  163.8831 C.ar    1  UNL1        0.1492
     16 C         141.2485  141.3697  163.0573 C.ar    1  UNL1        0.0924
     17 CL        141.0170  141.3033  161.5768 Cl      1  UNL1       -0.0791
     18 C         142.1958  140.4084  163.7122 C.ar    1  UNL1        0.0259
     19 C         142.4272  140.4748  165.1927 C.ar    1  UNL1        0.0601
     20 CL        143.3745  139.5136  165.8476 Cl      1  UNL1       -0.0822
     21 O         139.5854  143.3584  163.2282 O.3     1  UNL1       -0.4731
     22 C         139.7689  144.8356  163.4131 C.3     1  UNL1        0.2227
     23 C         140.6496  145.6053  162.4740 C.3     1  UNL1        0.1200
     24 N         141.7238  144.8970  161.7029 N.3     1  UNL1       -0.2696
     25 C         141.5404  144.6237  160.2395 C.3     1  UNL1        0.0722
     26 C         140.2941  145.0814  159.5415 C.3     1  UNL1        0.0188
     27 C         142.9813  144.4620  162.3952 C.3     1  UNL1        0.0722
     28 C         143.3847  145.1028  163.6901 C.3     1  UNL1        0.0188
     29 N         137.0915  139.2889  171.1374 N.am    1  UNL1       -0.3005
     30 C         137.7309  139.2480  169.7811 C.2     1  UNL1        0.2519
     31 O         137.0652  138.5060  168.6603 O.2     1  UNL1       -0.2696
     32 H         137.5284  139.7759  171.8731 H       1  UNL1        0.1498
     33 C         135.5909  137.7627  172.6102 C.3     1  UNL1        0.0230
     34 C         135.7865  138.5878  171.3728 C.3     1  UNL1        0.0898
@<TRIPOS>BOND
     1    33    34    1
     2    34    29    1
     3    29    30   am
     4    30    31    2
     5    30     1    1
     6     1     2   ar
     7     2     3   ar
     8     3     4   ar
     9     4    13    1
    10    13    14   ar
    11    14    15   ar
    12    15    21    1
    13    21    22    1
    14    22    23    1
    15    23    24    1
    16    24    25    1
    17    25    26    1
    18    24    27    1
    19    27    28    1
    20    15    16   ar
    21    16    17    1
    22    16    18   ar
    23    18    19   ar
    24    19    20    1
    25     4     5   ar
    26     5     6   ar
    27     6     7    1
    28     6     8   ar
    29     8     9   ar
    30     9    10   ar
    31    10     1   ar
    32     9     3   ar
    33    19    13   ar
    34    29    32    1
    35     7    11    1
    36     7    12    1
@<TRIPOS>MOLECULE
*****
 34 36 0 0 0
SMALL
GASTEIGER

@<TRIPOS>ATOM
      1 C         143.4478  142.7405  159.0962 C.ar    1  UNL1        0.0842
      2 C         143.1985  142.6389  160.5718 C.ar    1  UNL1        0.0146
      3 C         142.1428  143.6412  160.9337 C.ar    1  UNL1        0.0423
      4 C         141.4966  143.9905  162.2415 C.ar    1  UNL1        0.0870
      5 N         140.4471  145.0609  162.2973 N.ar    1  UNL1       -0.2139
      6 C         140.0441  145.7820  161.0453 C.ar    1  UNL1        0.2141
      7 N         138.9947  146.8523  161.1011 N.pl3   1  UNL1       -0.3274
      8 N         140.6904  145.4327  159.7375 N.ar    1  UNL1       -0.2074
      9 C         141.7398  144.3624  159.6817 C.ar    1  UNL1        0.1151
     10 S         142.5463  143.8057  158.5461 S.2     1  UNL1       -0.0633
     11 H         138.5705  147.0816  161.9594 H       1  UNL1        0.1452
     12 H         138.7302  147.3256  160.2794 H       1  UNL1        0.1452
     13 C         141.8997  143.2693  163.4935 C.ar    1  UNL1        0.0314
     14 C         141.1728  142.0249  163.9093 C.ar    1  UNL1        0.0401
     15 C         141.5758  141.3038  165.1613 C.ar    1  UNL1        0.1492
     16 C         142.7058  141.8271  165.9975 C.ar    1  UNL1        0.0924
     17 CL        143.1089  141.1060  167.2495 Cl      1  UNL1       -0.0791
     18 C         143.4328  143.0716  165.5817 C.ar    1  UNL1        0.0259
     19 C         143.0297  143.7927  164.3297 C.ar    1  UNL1        0.0601
     20 CL        143.7566  145.0371  163.9138 Cl      1  UNL1       -0.0822
     21 O         140.8489  140.0593  165.5771 O.3     1  UNL1       -0.4731
     22 C         141.1946  138.7428  164.9469 C.3     1  UNL1        0.2227
     23 C         142.6247  138.2952  164.8814 C.3     1  UNL1        0.1200
     24 N         143.5209  138.8049  163.7917 N.3     1  UNL1       -0.2696
     25 C         144.8339  139.4425  164.1373 C.3     1  UNL1        0.0722
     26 C         145.2263  140.7432  163.5018 C.3     1  UNL1        0.0188
     27 C         143.1040  138.6769  162.3565 C.3     1  UNL1        0.0722
     28 C         143.9635  137.9161  161.3909 C.3     1  UNL1        0.0188
     29 N         145.3857  142.5936  157.3719 N.am    1  UNL1       -0.3005
     30 C         144.4268  141.9209  158.3089 C.2     1  UNL1        0.2519
     31 O         144.4470  140.4286  158.4587 O.2     1  UNL1       -0.2696
     32 H         145.3724  143.5731  157.2736 H       1  UNL1        0.1498
     33 C         147.6075  142.4114  156.0376 C.3     1  UNL1        0.0230
     34 C         146.3647  141.7740  156.5846 C.3     1  UNL1        0.0898
@<TRIPOS>BOND
     1    33    34    1
     2    34    29    1
     3    29    30   am
     4    30    31    2
     5    30     1    1
     6     1     2   ar
     7     2     3   ar
     8     3     4   ar
     9     4    13    1
    10    13    14   ar
    11    14    15   ar
    12    15    21    1
    13    21    22    1
    14    22    23    1
    15    23    24    1
    16    24    25    1
    17    25    26    1
    18    24    27    1
    19    27    28    1
    20    15    16   ar
    21    16    17    1
    22    16    18   ar
    23    18    19   ar
    24    19    20    1
    25     4     5   ar
    26     5     6   ar
    27     6     7    1
    28     6     8   ar
    29     8     9   ar
    30     9    10   ar
    31    10     1   ar
    32     9     3   ar
    33    19    13   ar
    34    29    32    1
    35     7    11    1
    36     7    12    1
@<TRIPOS>MOLECULE
*****
 34 36 0 0 0
SMALL
GASTEIGER

@<TRIPOS>ATOM
      1 C         138.9595  139.9166  169.6053 C.ar    1  UNL1        0.0842
      2 C         139.5277  140.2506  168.2579 C.ar    1  UNL1        0.0146
      3 C         140.8419  140.9427  168.4675 C.ar    1  UNL1        0.0423
      4 C         141.8478  141.4997  167.5043 C.ar    1  UNL1        0.0870
      5 N         143.0979  142.1505  168.0181 N.ar    1  UNL1       -0.2139
      6 C         143.3419  142.2442  169.4951 C.ar    1  UNL1        0.2141
      7 N         144.5919  142.8949  170.0089 N.pl3   1  UNL1       -0.3274
      8 N         142.3359  141.6872  170.4584 N.ar    1  UNL1       -0.2074
      9 C         141.0859  141.0365  169.9445 C.ar    1  UNL1        0.1151
     10 S         139.9226  140.4023  170.6477 S.2     1  UNL1       -0.0633
     11 H         145.2522  143.2605  169.3767 H       1  UNL1        0.1452
     12 H         144.7521  142.9565  170.9784 H       1  UNL1        0.1452
     13 C         141.6037  141.4059  166.0272 C.ar    1  UNL1        0.0314
     14 C         142.2263  140.2961  165.2332 C.ar    1  UNL1        0.0401
     15 C         141.9822  140.2023  163.7561 C.ar    1  UNL1        0.1492
     16 C         141.1156  141.2184  163.0732 C.ar    1  UNL1        0.0924
     17 CL        140.8716  141.1247  161.5961 Cl      1  UNL1       -0.0791
     18 C         140.4931  142.3284  163.8672 C.ar    1  UNL1        0.0259
     19 C         140.7371  142.4221  165.3443 C.ar    1  UNL1        0.0601
     20 CL        140.1146  143.5320  166.1383 Cl      1  UNL1       -0.0822
     21 O         142.6048  139.0923  162.9621 O.3     1  UNL1       -0.4731
     22 C         144.0279  139.2062  162.5019 C.3     1  UNL1        0.2227
     23 C         144.4085  140.2483  161.4924 C.3     1  UNL1        0.1200
     24 N         144.7958  141.6250  161.9452 N.3     1  UNL1       -0.2696
     25 C         145.6642  141.7998  163.1557 C.3     1  UNL1        0.0722
     26 C         145.0698  142.2984  164.4394 C.3     1  UNL1        0.0188
     27 C         144.3146  142.8267  161.1875 C.3     1  UNL1        0.0722
     28 C         143.3633  143.7896  161.8339 C.3     1  UNL1        0.0188
     29 N         137.0142  139.3099  171.2170 N.am    1  UNL1       -0.3005
     30 C         137.6570  139.2193  169.8648 C.2     1  UNL1        0.2519
     31 O         136.9974  138.4316  168.7720 O.2     1  UNL1       -0.2696
     32 H         137.4472  139.8269  171.9343 H       1  UNL1        0.1498
     33 C         135.5446  137.7687  172.7053 C.3     1  UNL1        0.0230
     34 C         135.7117  138.6126  171.4765 C.3     1  UNL1        0.0898
@<TRIPOS>BOND
     1    33    34    1
     2    34    29    1
     3    29    30   am
     4    30    31    2
     5    30     1    1
     6     1     2   ar
     7     2     3   ar
     8     3     4   ar
     9     4    13    1
    10    13    14   ar
    11    14    15   ar
    12    15    21    1
    13    21    22    1
    14    22    23    1
    15    23    24    1
    16    24    25    1
    17    25    26    1
    18    24    27    1
    19    27    28    1
    20    15    16   ar
    21    16    17    1
    22    16    18   ar
    23    18    19   ar
    24    19    20    1
    25     4     5   ar
    26     5     6   ar
    27     6     7    1
    28     6     8   ar
    29     8     9   ar
    30     9    10   ar
    31    10     1   ar
    32     9     3   ar
    33    19    13   ar
    34    29    32    1
    35     7    11    1
    36     7    12    1
@<TRIPOS>MOLECULE
*****
 34 36 0 0 0
SMALL
GASTEIGER

@<TRIPOS>ATOM
      1 C         139.4842  140.2288  167.2457 C.ar    1  UNL1        0.0842
      2 C         139.5352  141.2054  166.1083 C.ar    1  UNL1        0.0146
      3 C         139.2724  140.4519  164.8382 C.ar    1  UNL1        0.0423
      4 C         139.1999  140.8928  163.4063 C.ar    1  UNL1        0.0870
      5 N         138.9139  139.8913  162.3267 N.ar    1  UNL1       -0.2139
      6 C         138.7005  138.4490  162.6791 C.ar    1  UNL1        0.2141
      7 N         138.4145  137.4476  161.5997 N.pl3   1  UNL1       -0.3274
      8 N         138.7730  138.0082  164.1111 N.ar    1  UNL1       -0.2074
      9 C         139.0590  139.0096  165.1906 C.ar    1  UNL1        0.1151
     10 S         139.1899  138.8717  166.6785 S.2     1  UNL1       -0.0633
     11 H         138.3669  137.7369  160.6598 H       1  UNL1        0.1452
     12 H         138.2744  136.5009  161.8310 H       1  UNL1        0.1452
     13 C         139.4133  142.3351  163.0539 C.ar    1  UNL1        0.0314
     14 C         140.7568  142.7992  162.5748 C.ar    1  UNL1        0.0401
     15 C         140.9703  144.2415  162.2223 C.ar    1  UNL1        0.1492
     16 C         139.8402  145.2197  162.3490 C.ar    1  UNL1        0.0924
     17 CL        140.0537  146.6620  161.9966 Cl      1  UNL1       -0.0791
     18 C         138.4966  144.7556  162.8282 C.ar    1  UNL1        0.0259
     19 C         138.2832  143.3133  163.1806 C.ar    1  UNL1        0.0601
     20 CL        136.9397  142.8492  163.6597 Cl      1  UNL1       -0.0822
     21 O         142.3138  144.7056  161.7432 O.3     1  UNL1       -0.4731
     22 C         143.5021  144.6315  162.6556 C.3     1  UNL1        0.2227
     23 C         144.4504  143.4732  162.5594 C.3     1  UNL1        0.1200
     24 N         144.8337  142.7132  163.7945 N.3     1  UNL1       -0.2696
     25 C         145.7180  141.5063  163.6883 C.3     1  UNL1        0.0722
     26 C         145.1938  140.1558  164.0774 C.3     1  UNL1        0.0188
     27 C         144.3326  143.1601  165.1359 C.3     1  UNL1        0.0722
     28 C         143.0596  142.5910  165.6886 C.3     1  UNL1        0.0188
     29 N         140.6735  141.6135  169.0944 N.am    1  UNL1       -0.3005
     30 C         139.6912  140.5525  168.6956 C.2     1  UNL1        0.2519
     31 O         138.9158  139.8150  169.7468 O.2     1  UNL1       -0.2696
     32 H         141.1824  142.0975  168.4045 H       1  UNL1        0.1498
     33 C         141.8404  141.1267  171.3642 C.3     1  UNL1        0.0230
     34 C         140.8805  141.9372  170.5444 C.3     1  UNL1        0.0898
@<TRIPOS>BOND
     1    33    34    1
     2    34    29    1
     3    29    30   am
     4    30    31    2
     5    30     1    1
     6     1     2   ar
     7     2     3   ar
     8     3     4   ar
     9     4    13    1
    10    13    14   ar
    11    14    15   ar
    12    15    21    1
    13    21    22    1
    14    22    23    1
    15    23    24    1
    16    24    25    1
    17    25    26    1
    18    24    27    1
    19    27    28    1
    20    15    16   ar
    21    16    17    1
    22    16    18   ar
    23    18    19   ar
    24    19    20    1
    25     4     5   ar
    26     5     6   ar
    27     6     7    1
    28     6     8   ar
    29     8     9   ar
    30     9    10   ar
    31    10     1   ar
    32     9     3   ar
    33    19    13   ar
    34    29    32    1
    35     7    11    1
    36     7    12    1
@<TRIPOS>MOLECULE
*****
 34 36 0 0 0
SMALL
GASTEIGER

@<TRIPOS>ATOM
      1 C         139.6654  138.8843  165.5587 C.ar    1  UNL1        0.0842
      2 C         140.5325  139.9709  164.9952 C.ar    1  UNL1        0.0146
      3 C         141.2170  139.4315  163.7743 C.ar    1  UNL1        0.0423
      4 C         142.1873  140.0499  162.8120 C.ar    1  UNL1        0.0870
      5 N         142.7136  139.2482  161.6585 N.ar    1  UNL1       -0.2139
      6 C         142.2696  137.8283  161.4674 C.ar    1  UNL1        0.2141
      7 N         142.7958  137.0266  160.3140 N.pl3   1  UNL1       -0.3274
      8 N         141.2993  137.2099  162.4299 N.ar    1  UNL1       -0.2074
      9 C         140.7731  138.0115  163.5833 C.ar    1  UNL1        0.1151
     10 S         139.8141  137.6733  164.6861 S.2     1  UNL1       -0.0633
     11 H         143.4326  137.4325  159.6823 H       1  UNL1        0.1452
     12 H         142.5044  136.0946  160.1886 H       1  UNL1        0.1452
     13 C         142.6312  141.4699  163.0030 C.ar    1  UNL1        0.0314
     14 C         141.9444  142.5769  162.2596 C.ar    1  UNL1        0.0401
     15 C         142.3883  143.9969  162.4506 C.ar    1  UNL1        0.1492
     16 C         143.5192  144.3099  163.3851 C.ar    1  UNL1        0.0924
     17 CL        143.9632  145.7299  163.5761 Cl      1  UNL1       -0.0791
     18 C         144.2061  143.2028  164.1285 C.ar    1  UNL1        0.0259
     19 C         143.7621  141.7828  163.9375 C.ar    1  UNL1        0.0601
     20 CL        144.4490  140.6758  164.6809 Cl      1  UNL1       -0.0822
     21 O         141.7014  145.1039  161.7072 O.3     1  UNL1       -0.4731
     22 C         140.4594  145.7280  162.2709 C.3     1  UNL1        0.2227
     23 C         139.1718  144.9586  162.2813 C.3     1  UNL1        0.1200
     24 N         138.7085  144.2888  163.5410 N.3     1  UNL1       -0.2696
     25 C         139.3908  144.5863  164.8432 C.3     1  UNL1        0.0722
     26 C         140.2372  143.5383  165.5030 C.3     1  UNL1        0.0188
     27 C         137.5628  143.3216  163.4984 C.3     1  UNL1        0.0722
     28 C         137.8036  141.8898  163.1216 C.3     1  UNL1        0.0188
     29 N         139.3419  139.6219  168.0287 N.am    1  UNL1       -0.3005
     30 C         138.8014  138.9901  166.7803 C.2     1  UNL1        0.2519
     31 O         137.3970  138.4641  166.7534 O.2     1  UNL1       -0.2696
     32 H         140.2637  139.9671  168.0464 H       1  UNL1        0.1498
     33 C         138.7813  140.7589  170.2966 C.3     1  UNL1        0.0230
     34 C         138.4779  139.7277  169.2503 C.3     1  UNL1        0.0898
@<TRIPOS>BOND
     1    33    34    1
     2    34    29    1
     3    29    30   am
     4    30    31    2
     5    30     1    1
     6     1     2   ar
     7     2     3   ar
     8     3     4   ar
     9     4    13    1
    10    13    14   ar
    11    14    15   ar
    12    15    21    1
    13    21    22    1
    14    22    23    1
    15    23    24    1
    16    24    25    1
    17    25    26    1
    18    24    27    1
    19    27    28    1
    20    15    16   ar
    21    16    17    1
    22    16    18   ar
    23    18    19   ar
    24    19    20    1
    25     4     5   ar
    26     5     6   ar
    27     6     7    1
    28     6     8   ar
    29     8     9   ar
    30     9    10   ar
    31    10     1   ar
    32     9     3   ar
    33    19    13   ar
    34    29    32    1
    35     7    11    1
    36     7    12    1
@<TRIPOS>MOLECULE
*****
 34 36 0 0 0
SMALL
GASTEIGER

@<TRIPOS>ATOM
      1 C         141.1928  144.8651  160.1213 C.ar    1  UNL1        0.0842
      2 C         141.8104  143.9121  161.1013 C.ar    1  UNL1        0.0146
      3 C         141.0890  144.0590  162.4082 C.ar    1  UNL1        0.0423
      4 C         141.2630  143.3772  163.7329 C.ar    1  UNL1        0.0870
      5 N         140.3736  143.7392  164.8854 N.ar    1  UNL1       -0.2139
      6 C         139.3102  144.7830  164.7130 C.ar    1  UNL1        0.2141
      7 N         138.4209  145.1450  165.8654 N.pl3   1  UNL1       -0.3274
      8 N         139.1362  145.4648  163.3883 N.ar    1  UNL1       -0.2074
      9 C         140.0256  145.1028  162.2359 C.ar    1  UNL1        0.1151
     10 S         140.0898  145.6010  160.8225 S.2     1  UNL1       -0.0633
     11 H         138.5351  144.6975  166.7348 H       1  UNL1        0.1452
     12 H         137.7230  145.8301  165.7523 H       1  UNL1        0.1452
     13 C         142.3264  142.3334  163.9052 C.ar    1  UNL1        0.0314
     14 C         142.0041  140.8880  163.6671 C.ar    1  UNL1        0.0401
     15 C         143.0675  139.8442  163.8394 C.ar    1  UNL1        0.1492
     16 C         144.4532  140.2458  164.2498 C.ar    1  UNL1        0.0924
     17 CL        145.5166  139.2020  164.4222 Cl      1  UNL1       -0.0791
     18 C         144.7755  141.6914  164.4880 C.ar    1  UNL1        0.0259
     19 C         143.7121  142.7351  164.3157 C.ar    1  UNL1        0.0601
     20 CL        144.0344  144.1806  164.5539 Cl      1  UNL1       -0.0822
     21 O         142.7452  138.3987  163.6012 O.3     1  UNL1       -0.4731
     22 C         141.6681  138.0209  162.6280 C.3     1  UNL1        0.2227
     23 C         140.3683  137.4630  163.1271 C.3     1  UNL1        0.1200
     24 N         139.3993  138.3508  163.8502 N.3     1  UNL1       -0.2696
     25 C         138.3787  139.1331  163.0778 C.3     1  UNL1        0.0722
     26 C         137.7980  138.5674  161.8158 C.3     1  UNL1        0.0188
     27 C         139.4508  138.4564  165.3456 C.3     1  UNL1        0.0722
     28 C         138.2332  138.8850  166.1096 C.3     1  UNL1        0.0188
     29 N         140.7362  145.8352  157.7548 N.am    1  UNL1       -0.3005
     30 C         141.6058  145.0498  158.6911 C.2     1  UNL1        0.2519
     31 O         142.8885  144.4490  158.1973 O.2     1  UNL1       -0.2696
     32 H         139.8944  146.2295  158.0789 H       1  UNL1        0.1498
     33 C         140.3533  146.9175  155.4240 C.3     1  UNL1        0.0230
     34 C         141.1492  146.0199  156.3246 C.3     1  UNL1        0.0898
@<TRIPOS>BOND
     1    33    34    1
     2    34    29    1
     3    29    30   am
     4    30    31    2
     5    30     1    1
     6     1     2   ar
     7     2     3   ar
     8     3     4   ar
     9     4    13    1
    10    13    14   ar
    11    14    15   ar
    12    15    21    1
    13    21    22    1
    14    22    23    1
    15    23    24    1
    16    24    25    1
    17    25    26    1
    18    24    27    1
    19    27    28    1
    20    15    16   ar
    21    16    17    1
    22    16    18   ar
    23    18    19   ar
    24    19    20    1
    25     4     5   ar
    26     5     6   ar
    27     6     7    1
    28     6     8   ar
    29     8     9   ar
    30     9    10   ar
    31    10     1   ar
    32     9     3   ar
    33    19    13   ar
    34    29    32    1
    35     7    11    1
    36     7    12    1
@<TRIPOS>MOLECULE
*****
 34 36 0 0 0
SMALL
GASTEIGER

@<TRIPOS>ATOM
      1 C         138.3406  140.7919  158.4191 C.ar    1  UNL1        0.0842
      2 C         138.5760  141.3655  159.7849 C.ar    1  UNL1        0.0146
      3 C         139.5852  140.5025  160.4826 C.ar    1  UNL1        0.0423
      4 C         140.2006  140.5817  161.8482 C.ar    1  UNL1        0.0870
      5 N         141.2045  139.5537  162.2792 N.ar    1  UNL1       -0.2139
      6 C         141.5928  138.4466  161.3445 C.ar    1  UNL1        0.2141
      7 N         142.5965  137.4187  161.7755 N.pl3   1  UNL1       -0.3274
      8 N         140.9772  138.3675  159.9789 N.ar    1  UNL1       -0.2074
      9 C         139.9735  139.3954  159.5479 C.ar    1  UNL1        0.1151
     10 S         139.2043  139.5743  158.2726 S.2     1  UNL1       -0.0633
     11 H         143.0005  137.4706  162.6718 H       1  UNL1        0.1452
     12 H         142.8514  136.6921  161.1620 H       1  UNL1        0.1452
     13 C         139.8123  141.6888  162.7828 C.ar    1  UNL1        0.0314
     14 C         140.6776  142.9082  162.9015 C.ar    1  UNL1        0.0401
     15 C         140.2893  144.0153  163.8362 C.ar    1  UNL1        0.1492
     16 C         139.0357  143.9030  164.6521 C.ar    1  UNL1        0.0924
     17 CL        138.6474  145.0101  165.5867 Cl      1  UNL1       -0.0791
     18 C         138.1703  142.6835  164.5334 C.ar    1  UNL1        0.0259
     19 C         138.5586  141.5764  163.5988 C.ar    1  UNL1        0.0601
     20 CL        137.6933  140.3569  163.4800 Cl      1  UNL1       -0.0822
     21 O         141.1547  145.2348  163.9548 O.3     1  UNL1       -0.4731
     22 C         142.5446  145.2259  163.3909 C.3     1  UNL1        0.2227
     23 C         143.7074  144.8667  164.2677 C.3     1  UNL1        0.1200
     24 N         144.0797  143.4274  164.4675 N.3     1  UNL1       -0.2696
     25 C         143.8319  142.7653  165.7904 C.3     1  UNL1        0.0722
     26 C         142.4920  142.1596  166.0866 C.3     1  UNL1        0.0188
     27 C         144.6997  142.6502  163.3443 C.3     1  UNL1        0.0722
     28 C         145.7729  141.6426  163.6323 C.3     1  UNL1        0.0188
     29 N         136.2765  140.4957  156.8693 N.am    1  UNL1       -0.3005
     30 C         137.4057  141.3396  157.3818 C.2     1  UNL1        0.2519
     31 O         137.6000  142.7313  156.8571 O.2     1  UNL1       -0.2696
     32 H         136.1490  139.5823  157.2137 H       1  UNL1        0.1498
     33 C         134.5113  140.1094  155.0025 C.3     1  UNL1        0.0230
     34 C         135.3416  141.0435  155.8320 C.3     1  UNL1        0.0898
@<TRIPOS>BOND
     1    33    34    1
     2    34    29    1
     3    29    30   am
     4    30    31    2
     5    30     1    1
     6     1     2   ar
     7     2     3   ar
     8     3     4   ar
     9     4    13    1
    10    13    14   ar
    11    14    15   ar
    12    15    21    1
    13    21    22    1
    14    22    23    1
    15    23    24    1
    16    24    25    1
    17    25    26    1
    18    24    27    1
    19    27    28    1
    20    15    16   ar
    21    16    17    1
    22    16    18   ar
    23    18    19   ar
    24    19    20    1
    25     4     5   ar
    26     5     6   ar
    27     6     7    1
    28     6     8   ar
    29     8     9   ar
    30     9    10   ar
    31    10     1   ar
    32     9     3   ar
    33    19    13   ar
    34    29    32    1
    35     7    11    1
    36     7    12    1
