@<TRIPOS>MOLECULE
*****
 33 37 0 0 0
SMALL
GASTEIGER

@<TRIPOS>ATOM
      1 N         138.5345  138.9302  165.2538 N.am    1  UNL1       -0.2484
      2 C         139.5997  139.3206  164.2723 C.2     1  UNL1        0.3249
      3 O         140.8042  140.0841  164.7371 O.2     1  UNL1       -0.2488
      4 N         139.4603  138.9473  162.8262 N.ar    1  UNL1       -0.2608
      5 C         138.3182  138.1890  162.2175 C.ar    1  UNL1        0.0842
      6 C         138.5906  138.0399  160.7500 C.ar    1  UNL1        0.0206
      7 C         139.9010  138.7061  160.4517 C.ar    1  UNL1        0.0180
      8 C         140.6742  138.8745  159.1775 C.ar    1  UNL1        0.0046
      9 C         141.9849  139.6038  159.1864 C.ar    1  UNL1        0.0377
     10 C         142.5224  140.1646  160.4696 C.ar    1  UNL1        0.1486
     11 C         141.7492  139.9962  161.7438 C.ar    1  UNL1        0.0552
     12 C         140.4385  139.2670  161.7349 C.ar    1  UNL1        0.0711
     13 H         137.7439  138.4290  164.9488 H       1  UNL1        0.1581
     14 C         139.4655  140.3255  168.7540 C.ar    1  UNL1        0.1549
     15 C         139.6894  140.2471  167.2729 C.ar    1  UNL1        0.0734
     16 C         138.6739  139.3035  166.6999 C.ar    1  UNL1        0.1773
     17 N         137.8224  138.7986  167.8268 N.ar    1  UNL1       -0.0620
     18 O         138.3116  139.4303  169.0963 O.2     1  UNL1       -0.3565
     19 C         140.3619  142.2474  168.7016 C.3     1  UNL1        0.0076
     20 C         140.2565  141.1536  169.7227 C.3     1  UNL1        0.0539
     21 C         140.1511  140.0598  170.7438 C.3     1  UNL1        0.0076
     22 C         141.0475  141.9817  170.6915 C.3     1  UNL1        0.0076
     23 O         143.8332  140.8939  160.4785 O.3     1  UNL1       -0.4363
     24 C         144.3025  141.5780  161.7282 C.ar    1  UNL1        0.2295
     25 N         145.2803  140.8929  162.6362 N.ar    1  UNL1       -0.1893
     26 C         145.7495  141.5770  163.8860 C.ar    1  UNL1        0.2012
     27 N         145.2409  142.9461  164.2277 N.ar    1  UNL1       -0.2270
     28 C         144.2631  143.6312  163.3197 C.ar    1  UNL1        0.0785
     29 C         143.7939  142.9471  162.0699 C.ar    1  UNL1        0.0621
     30 C         142.8327  143.8637  161.3728 C.3     1  UNL1        0.1019
     31 N         142.7079  145.1142  162.1917 N.3     1  UNL1       -0.2886
     32 C         143.5919  144.9705  163.3949 C.3     1  UNL1        0.1153
     33 H         141.7395  145.2396  162.4866 H       1  UNL1        0.1239
@<TRIPOS>BOND
     1    19    20    1
     2    20    21    1
     3    20    22    1
     4    20    14    1
     5    14    15   ar
     6    15    16   ar
     7    16     1    1
     8     1     2   am
     9     2     3    2
    10     2     4   am
    11     4     5   ar
    12     5     6   ar
    13     6     7   ar
    14     7     8   ar
    15     8     9   ar
    16     9    10   ar
    17    10    23    1
    18    23    24    1
    19    24    25   ar
    20    25    26   ar
    21    26    27   ar
    22    27    28   ar
    23    28    29   ar
    24    29    30    1
    25    30    31    1
    26    31    32    1
    27    10    11   ar
    28    11    12   ar
    29    16    17   ar
    30    17    18   ar
    31    18    14   ar
    32    12     4   ar
    33    12     7   ar
    34    29    24   ar
    35    32    28    1
    36     1    13    1
    37    31    33    1
@<TRIPOS>MOLECULE
*****
 33 37 0 0 0
SMALL
GASTEIGER

@<TRIPOS>ATOM
      1 N         143.3431  138.3950  162.3971 N.am    1  UNL1       -0.2484
      2 C         142.6645  139.4524  163.2168 C.2     1  UNL1        0.3249
      3 O         141.9077  140.5559  162.5391 O.2     1  UNL1       -0.2488
      4 N         142.7428  139.4060  164.7140 N.ar    1  UNL1       -0.2608
      5 C         143.4592  138.3694  165.5277 C.ar    1  UNL1        0.0842
      6 C         143.2775  138.7108  166.9770 C.ar    1  UNL1        0.0206
      7 C         142.4488  139.9584  167.0590 C.ar    1  UNL1        0.0180
      8 C         141.9525  140.7587  168.2265 C.ar    1  UNL1        0.0046
      9 C         141.1256  141.9887  167.9954 C.ar    1  UNL1        0.0377
     10 C         140.7951  142.4183  166.5967 C.ar    1  UNL1        0.1486
     11 C         141.2914  141.6180  165.4292 C.ar    1  UNL1        0.0552
     12 C         142.1183  140.3880  165.6604 C.ar    1  UNL1        0.0711
     13 H         143.8398  137.6707  162.8419 H       1  UNL1        0.1581
     14 C         142.5502  138.0554  158.6128 C.ar    1  UNL1        0.1549
     15 C         142.2574  137.7286  160.0472 C.ar    1  UNL1        0.0734
     16 C         143.2648  138.4414  160.8999 C.ar    1  UNL1        0.1773
     17 N         144.1801  139.2088  159.9925 N.ar    1  UNL1       -0.0620
     18 O         143.7384  138.9702  158.5790 O.2     1  UNL1       -0.3565
     19 C         142.9324  136.6511  157.0694 C.3     1  UNL1        0.0076
     20 C         141.7884  137.5552  157.4214 C.3     1  UNL1        0.0539
     21 C         140.6443  138.4593  157.7733 C.3     1  UNL1        0.0076
     22 C         141.0266  137.0551  156.2300 C.3     1  UNL1        0.0076
     23 O         139.9681  143.6483  166.3656 O.3     1  UNL1       -0.4363
     24 C         139.4165  143.9356  165.0007 C.ar    1  UNL1        0.2295
     25 N         137.9864  143.6105  164.6860 N.ar    1  UNL1       -0.1893
     26 C         137.4347  143.8978  163.3210 C.ar    1  UNL1        0.2012
     27 N         138.3132  144.5103  162.2707 N.ar    1  UNL1       -0.2270
     28 C         139.7433  144.8355  162.5854 C.ar    1  UNL1        0.0785
     29 C         140.2950  144.5482  163.9504 C.ar    1  UNL1        0.0621
     30 C         141.7330  144.9743  163.9683 C.3     1  UNL1        0.1019
     31 N         142.0702  145.5250  162.6144 N.3     1  UNL1       -0.2886
     32 C         140.8405  145.4392  161.7597 C.3     1  UNL1        0.1153
     33 H         142.8218  144.9774  162.1953 H       1  UNL1        0.1239
@<TRIPOS>BOND
     1    19    20    1
     2    20    21    1
     3    20    22    1
     4    20    14    1
     5    14    15   ar
     6    15    16   ar
     7    16     1    1
     8     1     2   am
     9     2     3    2
    10     2     4   am
    11     4     5   ar
    12     5     6   ar
    13     6     7   ar
    14     7     8   ar
    15     8     9   ar
    16     9    10   ar
    17    10    23    1
    18    23    24    1
    19    24    25   ar
    20    25    26   ar
    21    26    27   ar
    22    27    28   ar
    23    28    29   ar
    24    29    30    1
    25    30    31    1
    26    31    32    1
    27    10    11   ar
    28    11    12   ar
    29    16    17   ar
    30    17    18   ar
    31    18    14   ar
    32    12     4   ar
    33    12     7   ar
    34    29    24   ar
    35    32    28    1
    36     1    13    1
    37    31    33    1
@<TRIPOS>MOLECULE
*****
 33 37 0 0 0
SMALL
GASTEIGER

@<TRIPOS>ATOM
      1 N         138.6342  138.8402  165.5545 N.am    1  UNL1       -0.2484
      2 C         139.3450  139.6181  164.4868 C.2     1  UNL1        0.3249
      3 O         140.2147  140.7818  164.8600 O.2     1  UNL1       -0.2488
      4 N         139.1859  139.2322  163.0461 N.ar    1  UNL1       -0.2608
      5 C         138.3543  138.0985  162.5236 C.ar    1  UNL1        0.0842
      6 C         138.4850  138.0779  161.0295 C.ar    1  UNL1        0.0206
      7 C         139.3975  139.1989  160.6285 C.ar    1  UNL1        0.0180
      8 C         139.8899  139.6622  159.2895 C.ar    1  UNL1        0.0046
      9 C         140.8154  140.8389  159.1969 C.ar    1  UNL1        0.0377
     10 C         141.2487  141.5523  160.4433 C.ar    1  UNL1        0.1486
     11 C         140.7563  141.0890  161.7822 C.ar    1  UNL1        0.0552
     12 C         139.8307  139.9123  161.8748 C.ar    1  UNL1        0.0711
     13 H         138.0634  138.0764  165.3096 H       1  UNL1        0.1581
     14 C         139.7106  140.1144  169.0592 C.ar    1  UNL1        0.1549
     15 C         139.9750  139.9294  167.5943 C.ar    1  UNL1        0.0734
     16 C         138.7933  139.2261  166.9953 C.ar    1  UNL1        0.1773
     17 N         137.7985  138.9764  168.0899 N.ar    1  UNL1       -0.0620
     18 O         138.3655  139.5255  169.3655 O.2     1  UNL1       -0.3565
     19 C         139.7037  141.9501  170.1224 C.3     1  UNL1        0.0076
     20 C         140.6299  140.7728  170.0448 C.3     1  UNL1        0.0539
     21 C         141.5562  139.5955  169.9672 C.3     1  UNL1        0.0076
     22 C         141.5493  141.4311  171.0304 C.3     1  UNL1        0.0076
     23 O         142.1743  142.7290  160.3506 O.3     1  UNL1       -0.4363
     24 C         142.8714  143.2335  161.5792 C.ar    1  UNL1        0.2295
     25 N         142.5256  144.5822  162.1373 N.ar    1  UNL1       -0.1893
     26 C         143.2227  145.0867  163.3660 C.ar    1  UNL1        0.2012
     27 N         144.2656  144.2424  164.0365 N.ar    1  UNL1       -0.2270
     28 C         144.6114  142.8937  163.4784 C.ar    1  UNL1        0.0785
     29 C         143.9143  142.3893  162.2498 C.ar    1  UNL1        0.0621
     30 C         144.4613  141.0293  161.9319 C.3     1  UNL1        0.1019
     31 N         145.4966  140.6932  162.9640 N.3     1  UNL1       -0.2886
     32 C         145.5893  141.8455  163.9199 C.3     1  UNL1        0.1153
     33 H         146.3993  140.5440  162.5131 H       1  UNL1        0.1239
@<TRIPOS>BOND
     1    19    20    1
     2    20    21    1
     3    20    22    1
     4    20    14    1
     5    14    15   ar
     6    15    16   ar
     7    16     1    1
     8     1     2   am
     9     2     3    2
    10     2     4   am
    11     4     5   ar
    12     5     6   ar
    13     6     7   ar
    14     7     8   ar
    15     8     9   ar
    16     9    10   ar
    17    10    23    1
    18    23    24    1
    19    24    25   ar
    20    25    26   ar
    21    26    27   ar
    22    27    28   ar
    23    28    29   ar
    24    29    30    1
    25    30    31    1
    26    31    32    1
    27    10    11   ar
    28    11    12   ar
    29    16    17   ar
    30    17    18   ar
    31    18    14   ar
    32    12     4   ar
    33    12     7   ar
    34    29    24   ar
    35    32    28    1
    36     1    13    1
    37    31    33    1
@<TRIPOS>MOLECULE
*****
 33 37 0 0 0
SMALL
GASTEIGER

@<TRIPOS>ATOM
      1 N         142.8955  143.9178  159.1674 N.am    1  UNL1       -0.2484
      2 C         142.4829  143.7039  160.5937 C.2     1  UNL1        0.3249
      3 O         141.1627  144.2250  161.0787 O.2     1  UNL1       -0.2488
      4 N         143.3907  142.9689  161.5349 N.ar    1  UNL1       -0.2608
      5 C         144.7336  142.3934  161.1954 C.ar    1  UNL1        0.0842
      6 C         145.2878  141.7492  162.4315 C.ar    1  UNL1        0.0206
      7 C         144.2873  141.9266  163.5349 C.ar    1  UNL1        0.0180
      8 C         144.2924  141.4990  164.9727 C.ar    1  UNL1        0.0046
      9 C         143.1251  141.8254  165.8563 C.ar    1  UNL1        0.0377
     10 C         141.9526  142.5792  165.3022 C.ar    1  UNL1        0.1486
     11 C         141.9475  143.0067  163.8644 C.ar    1  UNL1        0.0552
     12 C         143.1148  142.6804  162.9808 C.ar    1  UNL1        0.0711
     13 H         143.7621  143.5758  158.8491 H       1  UNL1        0.1581
     14 C         140.1656  145.1699  156.7088 C.ar    1  UNL1        0.1549
     15 C         140.7660  144.0915  157.5612 C.ar    1  UNL1        0.0734
     16 C         141.9878  144.6528  158.2263 C.ar    1  UNL1        0.1773
     17 N         142.1424  146.0780  157.7850 N.ar    1  UNL1       -0.0620
     18 O         141.0162  146.3976  156.8472 O.2     1  UNL1       -0.3565
     19 C         138.9961  146.5078  155.5503 C.3     1  UNL1        0.0076
     20 C         138.9312  145.0429  155.8661 C.3     1  UNL1        0.0539
     21 C         138.8663  143.5779  156.1820 C.3     1  UNL1        0.0076
     22 C         137.6968  144.9158  155.0235 C.3     1  UNL1        0.0076
     23 O         140.7853  142.9055  166.1859 O.3     1  UNL1       -0.4363
     24 C         140.1979  141.8485  167.0733 C.ar    1  UNL1        0.2295
     25 N         140.3469  141.9515  168.5624 N.ar    1  UNL1       -0.1893
     26 C         139.7595  140.8944  169.4498 C.ar    1  UNL1        0.2012
     27 N         139.0231  139.7344  168.8483 N.ar    1  UNL1       -0.2270
     28 C         138.8740  139.6313  167.3593 C.ar    1  UNL1        0.0785
     29 C         139.4614  140.6883  166.4718 C.ar    1  UNL1        0.0621
     30 C         139.1567  140.3215  165.0497 C.3     1  UNL1        0.1019
     31 N         138.3810  139.0376  165.0582 N.3     1  UNL1       -0.2886
     32 C         138.2063  138.6111  166.4856 C.3     1  UNL1        0.1153
     33 H         138.8921  138.3210  164.5429 H       1  UNL1        0.1239
@<TRIPOS>BOND
     1    19    20    1
     2    20    21    1
     3    20    22    1
     4    20    14    1
     5    14    15   ar
     6    15    16   ar
     7    16     1    1
     8     1     2   am
     9     2     3    2
    10     2     4   am
    11     4     5   ar
    12     5     6   ar
    13     6     7   ar
    14     7     8   ar
    15     8     9   ar
    16     9    10   ar
    17    10    23    1
    18    23    24    1
    19    24    25   ar
    20    25    26   ar
    21    26    27   ar
    22    27    28   ar
    23    28    29   ar
    24    29    30    1
    25    30    31    1
    26    31    32    1
    27    10    11   ar
    28    11    12   ar
    29    16    17   ar
    30    17    18   ar
    31    18    14   ar
    32    12     4   ar
    33    12     7   ar
    34    29    24   ar
    35    32    28    1
    36     1    13    1
    37    31    33    1
@<TRIPOS>MOLECULE
*****
 33 37 0 0 0
SMALL
GASTEIGER

@<TRIPOS>ATOM
      1 N         139.8707  145.2986  160.1489 N.am    1  UNL1       -0.2484
      2 C         139.8672  143.9197  160.7394 C.2     1  UNL1        0.3249
      3 O         140.6025  142.8076  160.0520 O.2     1  UNL1       -0.2488
      4 N         139.1285  143.6530  162.0174 N.ar    1  UNL1       -0.2608
      5 C         138.3526  144.6597  162.8138 C.ar    1  UNL1        0.0842
      6 C         137.7806  143.9616  164.0119 C.ar    1  UNL1        0.0206
      7 C         138.2031  142.5234  163.9560 C.ar    1  UNL1        0.0180
      8 C         137.9368  141.3629  164.8682 C.ar    1  UNL1        0.0046
      9 C         138.5036  140.0116  164.5478 C.ar    1  UNL1        0.0377
     10 C         139.3367  139.8209  163.3151 C.ar    1  UNL1        0.1486
     11 C         139.6030  140.9814  162.4028 C.ar    1  UNL1        0.0552
     12 C         139.0362  142.3326  162.7233 C.ar    1  UNL1        0.0711
     13 H         139.3882  146.0285  160.6001 H       1  UNL1        0.1581
     14 C         141.0961  145.9833  156.5302 C.ar    1  UNL1        0.1549
     15 C         139.9919  145.7344  157.5144 C.ar    1  UNL1        0.0734
     16 C         140.6094  145.5653  158.8709 C.ar    1  UNL1        0.1773
     17 N         142.0953  145.7097  158.7251 N.ar    1  UNL1       -0.0620
     18 O         142.3961  145.9681  157.2784 O.2     1  UNL1       -0.3565
     19 C         142.0409  145.2384  154.7831 C.3     1  UNL1        0.0076
     20 C         140.9296  146.2081  155.0565 C.3     1  UNL1        0.0539
     21 C         139.8183  147.1778  155.3300 C.3     1  UNL1        0.0076
     22 C         140.7631  146.4328  153.5829 C.3     1  UNL1        0.0076
     23 O         139.9036  138.4695  162.9947 O.3     1  UNL1       -0.4363
     24 C         141.3144  138.3460  162.5004 C.ar    1  UNL1        0.2295
     25 N         141.5904  137.7057  161.1723 N.ar    1  UNL1       -0.1893
     26 C         143.0013  137.5821  160.6780 C.ar    1  UNL1        0.2012
     27 N         144.1360  138.0989  161.5118 N.ar    1  UNL1       -0.2270
     28 C         143.8600  138.7392  162.8399 C.ar    1  UNL1        0.0785
     29 C         142.4492  138.8628  163.3342 C.ar    1  UNL1        0.0621
     30 C         142.4847  139.5363  164.6740 C.3     1  UNL1        0.1019
     31 N         143.9175  139.8290  165.0077 N.3     1  UNL1       -0.2886
     32 C         144.7675  139.3364  163.8742 C.3     1  UNL1        0.1153
     33 H         144.1773  139.3488  165.8693 H       1  UNL1        0.1239
@<TRIPOS>BOND
     1    19    20    1
     2    20    21    1
     3    20    22    1
     4    20    14    1
     5    14    15   ar
     6    15    16   ar
     7    16     1    1
     8     1     2   am
     9     2     3    2
    10     2     4   am
    11     4     5   ar
    12     5     6   ar
    13     6     7   ar
    14     7     8   ar
    15     8     9   ar
    16     9    10   ar
    17    10    23    1
    18    23    24    1
    19    24    25   ar
    20    25    26   ar
    21    26    27   ar
    22    27    28   ar
    23    28    29   ar
    24    29    30    1
    25    30    31    1
    26    31    32    1
    27    10    11   ar
    28    11    12   ar
    29    16    17   ar
    30    17    18   ar
    31    18    14   ar
    32    12     4   ar
    33    12     7   ar
    34    29    24   ar
    35    32    28    1
    36     1    13    1
    37    31    33    1
@<TRIPOS>MOLECULE
*****
 33 37 0 0 0
SMALL
GASTEIGER

@<TRIPOS>ATOM
      1 N         142.4795  143.9660  159.0012 N.am    1  UNL1       -0.2484
      2 C         142.1350  143.7922  160.4508 C.2     1  UNL1        0.3249
      3 O         140.7602  144.1371  160.9415 O.2     1  UNL1       -0.2488
      4 N         143.1654  143.2734  161.4096 N.ar    1  UNL1       -0.2608
      5 C         144.5741  142.8886  161.0669 C.ar    1  UNL1        0.0842
      6 C         145.2472  142.4257  162.3249 C.ar    1  UNL1        0.0206
      7 C         144.2545  142.5245  163.4452 C.ar    1  UNL1        0.0180
      8 C         144.3560  142.2051  164.9072 C.ar    1  UNL1        0.0046
      9 C         143.1708  142.4096  165.8035 C.ar    1  UNL1        0.0377
     10 C         141.8842  142.9335  165.2378 C.ar    1  UNL1        0.1486
     11 C         141.7827  143.2529  163.7758 C.ar    1  UNL1        0.0552
     12 C         142.9679  143.0484  162.8795 C.ar    1  UNL1        0.0711
     13 H         143.3819  143.7396  158.6792 H       1  UNL1        0.1581
     14 C         140.2956  145.8798  156.4258 C.ar    1  UNL1        0.1549
     15 C         141.5424  145.7551  157.2503 C.ar    1  UNL1        0.0734
     16 C         141.4492  144.4848  158.0425 C.ar    1  UNL1        0.1773
     17 N         140.1447  143.8243  157.7076 N.ar    1  UNL1       -0.0620
     18 O         139.4318  144.6865  156.7084 O.2     1  UNL1       -0.3565
     19 C         140.8965  146.4119  154.4621 C.3     1  UNL1        0.0076
     20 C         139.9697  147.0009  155.4840 C.3     1  UNL1        0.0539
     21 C         139.0430  147.5899  156.5059 C.3     1  UNL1        0.0076
     22 C         139.6439  148.1220  154.5423 C.3     1  UNL1        0.0076
     23 O         140.6990  143.1380  166.1343 O.3     1  UNL1       -0.4363
     24 C         140.2593  142.0412  167.0582 C.ar    1  UNL1        0.2295
     25 N         139.5929  140.8166  166.5049 N.ar    1  UNL1       -0.1893
     26 C         139.1533  139.7197  167.4290 C.ar    1  UNL1        0.2012
     27 N         139.3800  139.8476  168.9062 N.ar    1  UNL1       -0.2270
     28 C         140.0464  141.0723  169.4594 C.ar    1  UNL1        0.0785
     29 C         140.4860  142.1691  168.5355 C.ar    1  UNL1        0.0621
     30 C         141.1123  143.2507  169.3648 C.3     1  UNL1        0.1019
     31 N         141.0597  142.8223  170.8014 N.3     1  UNL1       -0.2886
     32 C         140.4010  141.4760  170.8599 C.3     1  UNL1        0.1153
     33 H         140.5192  143.4960  171.3440 H       1  UNL1        0.1239
@<TRIPOS>BOND
     1    19    20    1
     2    20    21    1
     3    20    22    1
     4    20    14    1
     5    14    15   ar
     6    15    16   ar
     7    16     1    1
     8     1     2   am
     9     2     3    2
    10     2     4   am
    11     4     5   ar
    12     5     6   ar
    13     6     7   ar
    14     7     8   ar
    15     8     9   ar
    16     9    10   ar
    17    10    23    1
    18    23    24    1
    19    24    25   ar
    20    25    26   ar
    21    26    27   ar
    22    27    28   ar
    23    28    29   ar
    24    29    30    1
    25    30    31    1
    26    31    32    1
    27    10    11   ar
    28    11    12   ar
    29    16    17   ar
    30    17    18   ar
    31    18    14   ar
    32    12     4   ar
    33    12     7   ar
    34    29    24   ar
    35    32    28    1
    36     1    13    1
    37    31    33    1
@<TRIPOS>MOLECULE
*****
 33 37 0 0 0
SMALL
GASTEIGER

@<TRIPOS>ATOM
      1 N         142.7132  143.1966  159.1575 N.am    1  UNL1       -0.2484
      2 C         142.4684  142.9154  160.6105 C.2     1  UNL1        0.3249
      3 O         143.2171  141.8120  161.2973 O.2     1  UNL1       -0.2488
      4 N         141.4749  143.7377  161.3765 N.ar    1  UNL1       -0.2608
      5 C         140.6555  144.8677  160.8272 C.ar    1  UNL1        0.0842
      6 C         139.8006  145.4027  161.9376 C.ar    1  UNL1        0.0206
      7 C         140.0915  144.6033  163.1730 C.ar    1  UNL1        0.0180
      8 C         139.5479  144.6795  164.5689 C.ar    1  UNL1        0.0046
      9 C         140.0390  143.7266  165.6181 C.ar    1  UNL1        0.0377
     10 C         141.0738  142.6976  165.2713 C.ar    1  UNL1        0.1486
     11 C         141.6175  142.6214  163.8754 C.ar    1  UNL1        0.0552
     12 C         141.1263  143.5743  162.8263 C.ar    1  UNL1        0.0711
     13 H         142.2218  143.9208  158.7066 H       1  UNL1        0.1581
     14 C         145.6132  141.7319  157.0338 C.ar    1  UNL1        0.1549
     15 C         144.9016  142.8988  157.6518 C.ar    1  UNL1        0.0734
     16 C         143.7067  142.3743  158.3915 C.ar    1  UNL1        0.1773
     17 N         143.6798  140.8832  158.2307 N.ar    1  UNL1       -0.0620
     18 O         144.8580  140.4862  157.3916 O.2     1  UNL1       -0.3565
     19 C         146.2950  140.7700  155.2703 C.3     1  UNL1        0.0076
     20 C         146.8608  141.7988  156.2038 C.3     1  UNL1        0.0539
     21 C         147.4266  142.8276  157.1374 C.3     1  UNL1        0.0076
     22 C         148.1084  141.8658  155.3739 C.3     1  UNL1        0.0076
     23 O         141.5650  141.7446  166.3205 O.3     1  UNL1       -0.4363
     24 C         140.5876  141.0655  167.2335 C.ar    1  UNL1        0.2295
     25 N         140.5353  141.4366  168.6859 N.ar    1  UNL1       -0.1893
     26 C         139.5579  140.7574  169.5988 C.ar    1  UNL1        0.2012
     27 N         138.6329  139.7070  169.0593 N.ar    1  UNL1       -0.2270
     28 C         138.6852  139.3359  167.6069 C.ar    1  UNL1        0.0785
     29 C         139.6626  140.0151  166.6940 C.ar    1  UNL1        0.0621
     30 C         139.4854  139.4444  165.3181 C.3     1  UNL1        0.1019
     31 N         138.3986  138.4125  165.3807 N.3     1  UNL1       -0.2886
     32 C         137.9040  138.3454  166.7953 C.3     1  UNL1        0.1153
     33 H         138.7672  137.5040  165.0995 H       1  UNL1        0.1239
@<TRIPOS>BOND
     1    19    20    1
     2    20    21    1
     3    20    22    1
     4    20    14    1
     5    14    15   ar
     6    15    16   ar
     7    16     1    1
     8     1     2   am
     9     2     3    2
    10     2     4   am
    11     4     5   ar
    12     5     6   ar
    13     6     7   ar
    14     7     8   ar
    15     8     9   ar
    16     9    10   ar
    17    10    23    1
    18    23    24    1
    19    24    25   ar
    20    25    26   ar
    21    26    27   ar
    22    27    28   ar
    23    28    29   ar
    24    29    30    1
    25    30    31    1
    26    31    32    1
    27    10    11   ar
    28    11    12   ar
    29    16    17   ar
    30    17    18   ar
    31    18    14   ar
    32    12     4   ar
    33    12     7   ar
    34    29    24   ar
    35    32    28    1
    36     1    13    1
    37    31    33    1
@<TRIPOS>MOLECULE
*****
 33 37 0 0 0
SMALL
GASTEIGER

@<TRIPOS>ATOM
      1 N         142.4278  142.9445  159.2328 N.am    1  UNL1       -0.2484
      2 C         142.3076  142.7995  160.7210 C.2     1  UNL1        0.3249
      3 O         143.2642  141.9185  161.4683 O.2     1  UNL1       -0.2488
      4 N         141.2307  143.5355  161.4616 N.ar    1  UNL1       -0.2608
      5 C         140.2071  144.4474  160.8528 C.ar    1  UNL1        0.0842
      6 C         139.3321  144.9643  161.9561 C.ar    1  UNL1        0.0206
      7 C         139.8150  144.3720  163.2468 C.ar    1  UNL1        0.0180
      8 C         139.3378  144.5226  164.6608 C.ar    1  UNL1        0.0046
      9 C         140.0341  143.7902  165.7693 C.ar    1  UNL1        0.0377
     10 C         141.2074  142.9071  165.4637 C.ar    1  UNL1        0.1486
     11 C         141.6846  142.7565  164.0497 C.ar    1  UNL1        0.0552
     12 C         140.9884  143.4889  162.9412 C.ar    1  UNL1        0.0711
     13 H         141.8000  143.5227  158.7422 H       1  UNL1        0.1581
     14 C         145.4642  141.7293  157.1425 C.ar    1  UNL1        0.1549
     15 C         144.6269  142.8332  157.7173 C.ar    1  UNL1        0.0734
     16 C         143.5047  142.2084  158.4921 C.ar    1  UNL1        0.1773
     17 N         143.6485  140.7184  158.3963 N.ar    1  UNL1       -0.0620
     18 O         144.8595  140.4223  157.5622 O.2     1  UNL1       -0.3565
     19 C         146.1571  140.8987  155.3177 C.3     1  UNL1        0.0076
     20 C         146.6909  141.9021  156.2967 C.3     1  UNL1        0.0539
     21 C         147.2246  142.9055  157.2757 C.3     1  UNL1        0.0076
     22 C         147.9175  142.0749  155.4509 C.3     1  UNL1        0.0076
     23 O         141.9037  142.1746  166.5723 O.3     1  UNL1       -0.4363
     24 C         141.1012  141.4819  167.6334 C.ar    1  UNL1        0.2295
     25 N         140.0150  140.5227  167.2459 N.ar    1  UNL1       -0.1893
     26 C         139.2125  139.8299  168.3072 C.ar    1  UNL1        0.2012
     27 N         139.4962  140.0963  169.7558 N.ar    1  UNL1       -0.2270
     28 C         140.5823  141.0555  170.1432 C.ar    1  UNL1        0.0785
     29 C         141.3848  141.7483  169.0821 C.ar    1  UNL1        0.0621
     30 C         142.3850  142.6353  169.7623 C.3     1  UNL1        0.1019
     31 N         142.2007  142.4908  171.2439 N.3     1  UNL1       -0.2886
     32 C         141.0866  141.5144  171.4793 C.3     1  UNL1        0.1153
     33 H         141.9614  143.3941  171.6527 H       1  UNL1        0.1239
@<TRIPOS>BOND
     1    19    20    1
     2    20    21    1
     3    20    22    1
     4    20    14    1
     5    14    15   ar
     6    15    16   ar
     7    16     1    1
     8     1     2   am
     9     2     3    2
    10     2     4   am
    11     4     5   ar
    12     5     6   ar
    13     6     7   ar
    14     7     8   ar
    15     8     9   ar
    16     9    10   ar
    17    10    23    1
    18    23    24    1
    19    24    25   ar
    20    25    26   ar
    21    26    27   ar
    22    27    28   ar
    23    28    29   ar
    24    29    30    1
    25    30    31    1
    26    31    32    1
    27    10    11   ar
    28    11    12   ar
    29    16    17   ar
    30    17    18   ar
    31    18    14   ar
    32    12     4   ar
    33    12     7   ar
    34    29    24   ar
    35    32    28    1
    36     1    13    1
    37    31    33    1
@<TRIPOS>MOLECULE
*****
 33 37 0 0 0
SMALL
GASTEIGER

@<TRIPOS>ATOM
      1 N         143.0532  138.5208  157.8859 N.am    1  UNL1       -0.2484
      2 C         143.1734  138.5560  159.3808 C.2     1  UNL1        0.3249
      3 O         142.7773  137.3591  160.1934 O.2     1  UNL1       -0.2488
      4 N         143.6897  139.7882  160.0628 N.ar    1  UNL1       -0.2608
      5 C         144.1220  141.0550  159.3859 C.ar    1  UNL1        0.0842
      6 C         144.5639  142.0196  160.4463 C.ar    1  UNL1        0.0206
      7 C         144.4046  141.3489  161.7785 C.ar    1  UNL1        0.0180
      8 C         144.6817  141.8158  163.1768 C.ar    1  UNL1        0.0046
      9 C         144.4186  140.9036  164.3380 C.ar    1  UNL1        0.0377
     10 C         143.8783  139.5245  164.1010 C.ar    1  UNL1        0.1486
     11 C         143.6012  139.0576  162.7028 C.ar    1  UNL1        0.0552
     12 C         143.8643  139.9698  161.5415 C.ar    1  UNL1        0.0711
     13 H         143.3131  139.3063  157.3525 H       1  UNL1        0.1581
     14 C         142.3446  135.0111  156.3876 C.ar    1  UNL1        0.1549
     15 C         143.2078  135.9472  157.1803 C.ar    1  UNL1        0.0734
     16 C         142.5369  137.2886  157.2039 C.ar    1  UNL1        0.1773
     17 N         141.2590  137.1815  156.4257 N.ar    1  UNL1       -0.0620
     18 O         141.1402  135.7739  155.9212 O.2     1  UNL1       -0.3565
     19 C         143.8757  133.6540  156.9480 C.3     1  UNL1        0.0076
     20 C         142.6348  133.5658  156.1099 C.3     1  UNL1        0.0539
     21 C         141.3939  133.4777  155.2718 C.3     1  UNL1        0.0076
     22 C         142.9250  132.1207  155.8322 C.3     1  UNL1        0.0076
     23 O         143.6152  138.6122  165.2624 O.3     1  UNL1       -0.4363
     24 C         142.6730  139.0355  166.3501 C.ar    1  UNL1        0.2295
     25 N         143.1767  139.2124  167.7518 N.ar    1  UNL1       -0.1893
     26 C         142.2344  139.6357  168.8395 C.ar    1  UNL1        0.2012
     27 N         140.7885  139.8819  168.5254 N.ar    1  UNL1       -0.2270
     28 C         140.2848  139.7050  167.1237 C.ar    1  UNL1        0.0785
     29 C         141.2270  139.2817  166.0360 C.ar    1  UNL1        0.0621
     30 C         140.4477  139.1890  164.7577 C.3     1  UNL1        0.1019
     31 N         139.0238  139.5549  165.0554 N.3     1  UNL1       -0.2886
     32 C         138.9231  139.8738  166.5176 C.3     1  UNL1        0.1153
     33 H         138.4106  138.7719  164.8288 H       1  UNL1        0.1239
@<TRIPOS>BOND
     1    19    20    1
     2    20    21    1
     3    20    22    1
     4    20    14    1
     5    14    15   ar
     6    15    16   ar
     7    16     1    1
     8     1     2   am
     9     2     3    2
    10     2     4   am
    11     4     5   ar
    12     5     6   ar
    13     6     7   ar
    14     7     8   ar
    15     8     9   ar
    16     9    10   ar
    17    10    23    1
    18    23    24    1
    19    24    25   ar
    20    25    26   ar
    21    26    27   ar
    22    27    28   ar
    23    28    29   ar
    24    29    30    1
    25    30    31    1
    26    31    32    1
    27    10    11   ar
    28    11    12   ar
    29    16    17   ar
    30    17    18   ar
    31    18    14   ar
    32    12     4   ar
    33    12     7   ar
    34    29    24   ar
    35    32    28    1
    36     1    13    1
    37    31    33    1
