@<TRIPOS>MOLECULE
*****
 27 30 0 0 0
SMALL
GASTEIGER

@<TRIPOS>ATOM
      1 C         141.6762  143.3007  161.4332 C.3     1  UNL1        0.1123
      2 N         141.7513  142.6090  162.7621 N.am    1  UNL1       -0.2606
      3 C         141.9513  141.1385  162.9807 C.3     1  UNL1        0.1169
      4 C         141.9631  140.8871  164.4594 C.3     1  UNL1        0.1212
      5 N         141.7704  142.2021  165.1547 N.am    1  UNL1       -0.2413
      6 C         141.6394  143.2664  164.1057 C.2     1  UNL1        0.3111
      7 O         141.4329  144.7308  164.3564 O.2     1  UNL1       -0.2520
      8 C         141.7178  142.4156  166.6386 C.ar    1  UNL1        0.0562
      9 C         140.4216  142.7835  167.2979 C.ar    1  UNL1        0.0150
     10 C         140.3691  142.9970  168.7817 C.ar    1  UNL1        0.0021
     11 C         141.6126  142.8425  169.6061 C.ar    1  UNL1        0.0115
     12 C         142.9087  142.4746  168.9468 C.ar    1  UNL1        0.0589
     13 CL        144.1522  142.3201  169.7713 Cl      1  UNL1       -0.0822
     14 C         142.9613  142.2611  167.4630 C.ar    1  UNL1        0.0263
     15 C         140.3535  143.4591  160.7438 C.3     1  UNL1        0.0942
     16 C         139.1202  145.3457  162.0361 C.3     1  UNL1        0.0899
     17 N         139.1593  143.9401  161.5136 N.3     1  UNL1       -0.2658
     18 C         138.0043  143.0157  161.7610 C.3     1  UNL1        0.1057
     19 C         138.1680  141.8395  162.6775 C.ar    1  UNL1        0.0234
     20 C         138.0950  141.8720  164.1753 C.ar    1  UNL1        0.0040
     21 C         138.3153  140.4770  164.6806 C.ar    1  UNL1        0.0062
     22 C         138.3525  139.9058  166.0671 C.ar    1  UNL1        0.0005
     23 C         138.5988  138.4399  166.2679 C.ar    1  UNL1        0.0000
     24 C         138.8079  137.5451  165.0823 C.ar    1  UNL1        0.0005
     25 C         138.7707  138.1163  163.6958 C.ar    1  UNL1        0.0065
     26 C         138.5244  139.5822  163.4950 C.ar    1  UNL1        0.0292
     27 S         138.4333  140.4243  162.2570 S.2     1  UNL1       -0.0899
@<TRIPOS>BOND
     1    16    17    1
     2    17    15    1
     3    15     1    1
     4     1     2    1
     5     2     3    1
     6     3     4    1
     7     4     5    1
     8     5     8    1
     9     8     9   ar
    10     9    10   ar
    11    10    11   ar
    12    11    12   ar
    13    12    13    1
    14    12    14   ar
    15     5     6   am
    16     6     7    2
    17    17    18    1
    18    18    19    1
    19    19    20   ar
    20    20    21   ar
    21    21    22   ar
    22    22    23   ar
    23    23    24   ar
    24    24    25   ar
    25    25    26   ar
    26    26    27   ar
    27     6     2   am
    28    27    19   ar
    29    14     8   ar
    30    26    21   ar
@<TRIPOS>MOLECULE
*****
 27 30 0 0 0
SMALL
GASTEIGER

@<TRIPOS>ATOM
      1 C         143.8726  144.2103  163.4476 C.3     1  UNL1        0.1123
      2 N         142.6148  143.7709  164.1368 N.am    1  UNL1       -0.2606
      3 C         141.2144  144.0403  163.6718 C.3     1  UNL1        0.1169
      4 C         140.2708  143.4208  164.6596 C.3     1  UNL1        0.1212
      5 N         141.0880  142.7684  165.7350 N.am    1  UNL1       -0.2413
      6 C         142.5368  142.9847  165.4119 C.2     1  UNL1        0.3111
      7 O         143.7027  142.5001  166.2217 O.2     1  UNL1       -0.2520
      8 C         140.5508  142.0293  166.9247 C.ar    1  UNL1        0.0562
      9 C         139.9959  140.6456  166.7602 C.ar    1  UNL1        0.0150
     10 C         139.4587  139.9066  167.9498 C.ar    1  UNL1        0.0021
     11 C         139.4766  140.5514  169.3041 C.ar    1  UNL1        0.0115
     12 C         140.0316  141.9352  169.4686 C.ar    1  UNL1        0.0589
     13 CL        140.0495  142.5799  170.8228 Cl      1  UNL1       -0.0822
     14 C         140.5687  142.6742  168.2789 C.ar    1  UNL1        0.0263
     15 C         144.4684  143.3634  162.3624 C.3     1  UNL1        0.0942
     16 C         145.9214  141.6461  163.6622 C.3     1  UNL1        0.0899
     17 N         144.8572  141.9430  162.6477 N.3     1  UNL1       -0.2658
     18 C         144.1819  140.8196  161.9184 C.3     1  UNL1        0.1057
     19 C         143.0033  140.1263  162.5352 C.ar    1  UNL1        0.0234
     20 C         143.0582  138.9360  163.4463 C.ar    1  UNL1        0.0040
     21 C         141.6518  138.5756  163.8233 C.ar    1  UNL1        0.0062
     22 C         141.0932  137.4914  164.6965 C.ar    1  UNL1        0.0005
     23 C         139.6105  137.3749  164.8916 C.ar    1  UNL1        0.0000
     24 C         138.6864  138.3425  164.2135 C.ar    1  UNL1        0.0005
     25 C         139.2450  139.4267  163.3403 C.ar    1  UNL1        0.0065
     26 C         140.7277  139.5432  163.1452 C.ar    1  UNL1        0.0292
     27 S         141.5630  140.5016  162.3491 S.2     1  UNL1       -0.0899
@<TRIPOS>BOND
     1    16    17    1
     2    17    15    1
     3    15     1    1
     4     1     2    1
     5     2     3    1
     6     3     4    1
     7     4     5    1
     8     5     8    1
     9     8     9   ar
    10     9    10   ar
    11    10    11   ar
    12    11    12   ar
    13    12    13    1
    14    12    14   ar
    15     5     6   am
    16     6     7    2
    17    17    18    1
    18    18    19    1
    19    19    20   ar
    20    20    21   ar
    21    21    22   ar
    22    22    23   ar
    23    23    24   ar
    24    24    25   ar
    25    25    26   ar
    26    26    27   ar
    27     6     2   am
    28    27    19   ar
    29    14     8   ar
    30    26    21   ar
@<TRIPOS>MOLECULE
*****
 27 30 0 0 0
SMALL
GASTEIGER

@<TRIPOS>ATOM
      1 C         140.2213  144.5464  161.4264 C.3     1  UNL1        0.1123
      2 N         139.8057  143.6762  162.5754 N.am    1  UNL1       -0.2606
      3 C         139.2803  144.1526  163.8972 C.3     1  UNL1        0.1169
      4 C         138.9924  142.9478  164.7430 C.3     1  UNL1        0.1212
      5 N         139.3398  141.7268  163.9441 N.am    1  UNL1       -0.2413
      6 C         139.8425  142.1770  162.6043 C.2     1  UNL1        0.3111
      7 O         140.3013  141.2846  161.4894 O.2     1  UNL1       -0.2520
      8 C         139.2078  140.3051  164.4040 C.ar    1  UNL1        0.0562
      9 C         139.9237  139.2100  163.6704 C.ar    1  UNL1        0.0150
     10 C         139.7916  137.7884  164.1303 C.ar    1  UNL1        0.0021
     11 C         138.9437  137.4619  165.3238 C.ar    1  UNL1        0.0115
     12 C         138.2278  138.5570  166.0574 C.ar    1  UNL1        0.0589
     13 CL        137.3799  138.2305  167.2508 Cl      1  UNL1       -0.0822
     14 C         138.3598  139.9786  165.5975 C.ar    1  UNL1        0.0263
     15 C         141.6480  144.9920  161.3009 C.3     1  UNL1        0.0942
     16 C         142.9160  143.1650  159.9576 C.3     1  UNL1        0.0899
     17 N         142.7464  143.9745  161.2090 N.3     1  UNL1       -0.2658
     18 C         143.6749  143.7665  162.3685 C.3     1  UNL1        0.1057
     19 C         143.4362  142.6381  163.3275 C.ar    1  UNL1        0.0234
     20 C         142.7753  142.7465  164.6696 C.ar    1  UNL1        0.0040
     21 C         142.7471  141.3786  165.2844 C.ar    1  UNL1        0.0062
     22 C         142.2186  140.8784  166.5960 C.ar    1  UNL1        0.0005
     23 C         142.3336  139.4242  166.9454 C.ar    1  UNL1        0.0000
     24 C         142.9770  138.4703  165.9832 C.ar    1  UNL1        0.0005
     25 C         143.5055  138.9705  164.6715 C.ar    1  UNL1        0.0065
     26 C         143.3905  140.4246  164.3222 C.ar    1  UNL1        0.0292
     27 S         143.8164  141.2031  163.1127 S.2     1  UNL1       -0.0899
@<TRIPOS>BOND
     1    16    17    1
     2    17    15    1
     3    15     1    1
     4     1     2    1
     5     2     3    1
     6     3     4    1
     7     4     5    1
     8     5     8    1
     9     8     9   ar
    10     9    10   ar
    11    10    11   ar
    12    11    12   ar
    13    12    13    1
    14    12    14   ar
    15     5     6   am
    16     6     7    2
    17    17    18    1
    18    18    19    1
    19    19    20   ar
    20    20    21   ar
    21    21    22   ar
    22    22    23   ar
    23    23    24   ar
    24    24    25   ar
    25    25    26   ar
    26    26    27   ar
    27     6     2   am
    28    27    19   ar
    29    14     8   ar
    30    26    21   ar
@<TRIPOS>MOLECULE
*****
 27 30 0 0 0
SMALL
GASTEIGER

@<TRIPOS>ATOM
      1 C         140.5809  145.1987  162.5848 C.3     1  UNL1        0.1123
      2 N         140.6579  144.2232  163.7218 N.am    1  UNL1       -0.2606
      3 C         139.8827  144.3002  165.0036 C.3     1  UNL1        0.1169
      4 C         140.2693  143.1241  165.8505 C.3     1  UNL1        0.1212
      5 N         141.2834  142.3202  165.0920 N.am    1  UNL1       -0.2413
      6 C         141.5236  142.9994  163.7763 C.2     1  UNL1        0.3111
      7 O         142.4643  142.5363  162.7037 O.2     1  UNL1       -0.2520
      8 C         141.9418  141.0584  165.5660 C.ar    1  UNL1        0.0562
      9 C         142.6052  140.1427  164.5804 C.ar    1  UNL1        0.0150
     10 C         143.2636  138.8810  165.0543 C.ar    1  UNL1        0.0021
     11 C         143.2585  138.5350  166.5139 C.ar    1  UNL1        0.0115
     12 C         142.5951  139.4507  167.4995 C.ar    1  UNL1        0.0589
     13 CL        142.5901  139.1047  168.9589 Cl      1  UNL1       -0.0822
     14 C         141.9367  140.7124  167.0255 C.ar    1  UNL1        0.0263
     15 C         139.5357  145.0310  161.5222 C.3     1  UNL1        0.0942
     16 C         140.2235  143.1840  159.8293 C.3     1  UNL1        0.0899
     17 N         139.3041  143.6840  160.9039 N.3     1  UNL1       -0.2658
     18 C         138.1531  142.8372  161.3601 C.3     1  UNL1        0.1057
     19 C         138.3879  141.7031  162.3132 C.ar    1  UNL1        0.0234
     20 C         137.8895  141.6207  163.7256 C.ar    1  UNL1        0.0040
     21 C         138.3559  140.3188  164.3066 C.ar    1  UNL1        0.0062
     22 C         138.1659  139.6978  165.6587 C.ar    1  UNL1        0.0005
     23 C         138.7626  138.3544  165.9575 C.ar    1  UNL1        0.0000
     24 C         139.5492  137.6321  164.9042 C.ar    1  UNL1        0.0005
     25 C         139.7392  138.2532  163.5521 C.ar    1  UNL1        0.0065
     26 C         139.1426  139.5965  163.2533 C.ar    1  UNL1        0.0292
     27 S         139.1623  140.4520  162.0213 S.2     1  UNL1       -0.0899
@<TRIPOS>BOND
     1    16    17    1
     2    17    15    1
     3    15     1    1
     4     1     2    1
     5     2     3    1
     6     3     4    1
     7     4     5    1
     8     5     8    1
     9     8     9   ar
    10     9    10   ar
    11    10    11   ar
    12    11    12   ar
    13    12    13    1
    14    12    14   ar
    15     5     6   am
    16     6     7    2
    17    17    18    1
    18    18    19    1
    19    19    20   ar
    20    20    21   ar
    21    21    22   ar
    22    22    23   ar
    23    23    24   ar
    24    24    25   ar
    25    25    26   ar
    26    26    27   ar
    27     6     2   am
    28    27    19   ar
    29    14     8   ar
    30    26    21   ar
@<TRIPOS>MOLECULE
*****
 27 30 0 0 0
SMALL
GASTEIGER

@<TRIPOS>ATOM
      1 C         144.9906  140.6608  163.2876 C.3     1  UNL1        0.1123
      2 N         144.1770  140.3160  164.4998 N.am    1  UNL1       -0.2606
      3 C         143.8621  138.9324  164.9860 C.3     1  UNL1        0.1169
      4 C         143.0260  139.0557  166.2252 C.3     1  UNL1        0.1212
      5 N         142.8241  140.5155  166.5049 N.am    1  UNL1       -0.2413
      6 C         143.5355  141.2945  165.4384 C.2     1  UNL1        0.3111
      7 O         143.5950  142.7894  165.3298 O.2     1  UNL1       -0.2520
      8 C         142.0473  141.0948  167.6499 C.ar    1  UNL1        0.0562
      9 C         142.5214  142.3510  168.3186 C.ar    1  UNL1        0.0150
     10 C         141.7446  142.9302  169.4636 C.ar    1  UNL1        0.0021
     11 C         140.4936  142.2532  169.9399 C.ar    1  UNL1        0.0115
     12 C         140.0195  140.9970  169.2712 C.ar    1  UNL1        0.0589
     13 CL        138.7686  140.3201  169.7475 Cl      1  UNL1       -0.0822
     14 C         140.7963  140.4178  168.1262 C.ar    1  UNL1        0.0263
     15 C         144.3293  140.7647  161.9453 C.3     1  UNL1        0.0942
     16 C         144.0240  138.3257  161.1037 C.3     1  UNL1        0.0899
     17 N         143.4382  139.6597  161.4605 N.3     1  UNL1       -0.2658
     18 C         141.9614  139.8887  161.3326 C.3     1  UNL1        0.1057
     19 C         141.0499  139.5631  162.4786 C.ar    1  UNL1        0.0234
     20 C         140.7604  138.1917  163.0128 C.ar    1  UNL1        0.0040
     21 C         139.7994  138.3327  164.1559 C.ar    1  UNL1        0.0062
     22 C         139.1623  137.3215  165.0621 C.ar    1  UNL1        0.0005
     23 C         138.2207  137.7688  166.1407 C.ar    1  UNL1        0.0000
     24 C         137.9163  139.2275  166.3130 C.ar    1  UNL1        0.0005
     25 C         138.5535  140.2388  165.4067 C.ar    1  UNL1        0.0065
     26 C         139.4950  139.7914  164.3282 C.ar    1  UNL1        0.0292
     27 S         140.2678  140.5518  163.2915 S.2     1  UNL1       -0.0899
@<TRIPOS>BOND
     1    16    17    1
     2    17    15    1
     3    15     1    1
     4     1     2    1
     5     2     3    1
     6     3     4    1
     7     4     5    1
     8     5     8    1
     9     8     9   ar
    10     9    10   ar
    11    10    11   ar
    12    11    12   ar
    13    12    13    1
    14    12    14   ar
    15     5     6   am
    16     6     7    2
    17    17    18    1
    18    18    19    1
    19    19    20   ar
    20    20    21   ar
    21    21    22   ar
    22    22    23   ar
    23    23    24   ar
    24    24    25   ar
    25    25    26   ar
    26    26    27   ar
    27     6     2   am
    28    27    19   ar
    29    14     8   ar
    30    26    21   ar
@<TRIPOS>MOLECULE
*****
 27 30 0 0 0
SMALL
GASTEIGER

@<TRIPOS>ATOM
      1 C         140.5237  145.3120  162.9378 C.3     1  UNL1        0.1123
      2 N         140.9478  144.3396  163.9984 N.am    1  UNL1       -0.2606
      3 C         142.3246  143.7706  164.1732 C.3     1  UNL1        0.1169
      4 C         142.2973  142.8449  165.3532 C.3     1  UNL1        0.1212
      5 N         140.9035  142.8419  165.9076 N.am    1  UNL1       -0.2413
      6 C         140.0694  143.7657  165.0703 C.2     1  UNL1        0.3111
      7 O         138.6129  144.0632  165.2699 O.2     1  UNL1       -0.2520
      8 C         140.4273  142.0534  167.0916 C.ar    1  UNL1        0.0562
      9 C         139.8444  140.6852  166.8962 C.ar    1  UNL1        0.0150
     10 C         139.3682  139.8969  168.0802 C.ar    1  UNL1        0.0021
     11 C         139.4749  140.4767  169.4594 C.ar    1  UNL1        0.0115
     12 C         140.0578  141.8450  169.6548 C.ar    1  UNL1        0.0589
     13 CL        140.1645  142.4248  171.0340 Cl      1  UNL1       -0.0822
     14 C         140.5340  142.6333  168.4709 C.ar    1  UNL1        0.0263
     15 C         139.2607  145.0745  162.1644 C.3     1  UNL1        0.0942
     16 C         140.0115  144.0518  159.8971 C.3     1  UNL1        0.0899
     17 N         139.1968  143.9678  161.1538 N.3     1  UNL1       -0.2658
     18 C         138.3183  142.7772  161.3999 C.3     1  UNL1        0.1057
     19 C         138.8505  141.5959  162.1558 C.ar    1  UNL1        0.0234
     20 C         138.0310  140.5814  162.8969 C.ar    1  UNL1        0.0040
     21 C         138.9696  139.5802  163.5024 C.ar    1  UNL1        0.0062
     22 C         138.7307  138.3593  164.3405 C.ar    1  UNL1        0.0005
     23 C         139.8913  137.5341  164.8116 C.ar    1  UNL1        0.0000
     24 C         141.2909  137.9299  164.4447 C.ar    1  UNL1        0.0005
     25 C         141.5298  139.1507  163.6066 C.ar    1  UNL1        0.0065
     26 C         140.3692  139.9759  163.1355 C.ar    1  UNL1        0.0292
     27 S         140.2955  141.2216  162.3033 S.2     1  UNL1       -0.0899
@<TRIPOS>BOND
     1    16    17    1
     2    17    15    1
     3    15     1    1
     4     1     2    1
     5     2     3    1
     6     3     4    1
     7     4     5    1
     8     5     8    1
     9     8     9   ar
    10     9    10   ar
    11    10    11   ar
    12    11    12   ar
    13    12    13    1
    14    12    14   ar
    15     5     6   am
    16     6     7    2
    17    17    18    1
    18    18    19    1
    19    19    20   ar
    20    20    21   ar
    21    21    22   ar
    22    22    23   ar
    23    23    24   ar
    24    24    25   ar
    25    25    26   ar
    26    26    27   ar
    27     6     2   am
    28    27    19   ar
    29    14     8   ar
    30    26    21   ar
@<TRIPOS>MOLECULE
*****
 27 30 0 0 0
SMALL
GASTEIGER

@<TRIPOS>ATOM
      1 C         143.3557  140.3783  161.2816 C.3     1  UNL1        0.1123
      2 N         142.9176  139.8106  162.5991 N.am    1  UNL1       -0.2606
      3 C         143.7559  138.9772  163.5226 C.3     1  UNL1        0.1169
      4 C         142.9207  138.6281  164.7186 C.3     1  UNL1        0.1212
      5 N         141.5663  139.2458  164.5344 N.am    1  UNL1       -0.2413
      6 C         141.5643  139.9767  163.2244 C.2     1  UNL1        0.3111
      7 O         140.4116  140.7396  162.6421 O.2     1  UNL1       -0.2520
      8 C         140.4157  139.1496  165.4920 C.ar    1  UNL1        0.0562
      9 C         139.2174  138.3174  165.1434 C.ar    1  UNL1        0.0150
     10 C         138.0668  138.2212  166.1010 C.ar    1  UNL1        0.0021
     11 C         138.1146  138.9573  167.4072 C.ar    1  UNL1        0.0115
     12 C         139.3129  139.7895  167.7557 C.ar    1  UNL1        0.0589
     13 CL        139.3606  140.5254  169.0618 Cl      1  UNL1       -0.0822
     14 C         140.4634  139.8856  166.7982 C.ar    1  UNL1        0.0263
     15 C         144.5676  141.2593  161.2103 C.3     1  UNL1        0.0942
     16 C         145.8115  141.7701  163.4334 C.3     1  UNL1        0.0899
     17 N         144.8801  142.1977  162.3381 N.3     1  UNL1       -0.2658
     18 C         144.2613  143.5637  162.3706 C.3     1  UNL1        0.1057
     19 C         142.8306  143.7292  162.7899 C.ar    1  UNL1        0.0234
     20 C         142.2997  143.5928  164.1861 C.ar    1  UNL1        0.0040
     21 C         140.8206  143.8394  164.1458 C.ar    1  UNL1        0.0062
     22 C         139.7732  143.8383  165.2195 C.ar    1  UNL1        0.0005
     23 C         138.3427  144.1261  164.8721 C.ar    1  UNL1        0.0000
     24 C         137.9596  144.4149  163.4509 C.ar    1  UNL1        0.0005
     25 C         139.0069  144.4160  162.3771 C.ar    1  UNL1        0.0065
     26 C         140.4375  144.1283  162.7246 C.ar    1  UNL1        0.0292
     27 S         141.6797  144.0601  161.8866 S.2     1  UNL1       -0.0899
@<TRIPOS>BOND
     1    16    17    1
     2    17    15    1
     3    15     1    1
     4     1     2    1
     5     2     3    1
     6     3     4    1
     7     4     5    1
     8     5     8    1
     9     8     9   ar
    10     9    10   ar
    11    10    11   ar
    12    11    12   ar
    13    12    13    1
    14    12    14   ar
    15     5     6   am
    16     6     7    2
    17    17    18    1
    18    18    19    1
    19    19    20   ar
    20    20    21   ar
    21    21    22   ar
    22    22    23   ar
    23    23    24   ar
    24    24    25   ar
    25    25    26   ar
    26    26    27   ar
    27     6     2   am
    28    27    19   ar
    29    14     8   ar
    30    26    21   ar
@<TRIPOS>MOLECULE
*****
 27 30 0 0 0
SMALL
GASTEIGER

@<TRIPOS>ATOM
      1 C         140.9131  137.3285  163.0618 C.3     1  UNL1        0.1123
      2 N         140.2770  138.2214  164.0857 N.am    1  UNL1       -0.2606
      3 C         138.9025  138.8167  164.0044 C.3     1  UNL1        0.1169
      4 C         138.6798  139.6389  165.2391 C.3     1  UNL1        0.1212
      5 N         139.9165  139.5518  166.0833 N.am    1  UNL1       -0.2413
      6 C         140.9037  138.6757  165.3705 C.2     1  UNL1        0.3111
      7 O         142.2765  138.3170  165.8571 O.2     1  UNL1       -0.2520
      8 C         140.1290  140.2229  167.4080 C.ar    1  UNL1        0.0562
      9 C         139.1495  140.0077  168.5234 C.ar    1  UNL1        0.0150
     10 C         139.3619  140.6788  169.8479 C.ar    1  UNL1        0.0021
     11 C         140.5539  141.5651  170.0570 C.ar    1  UNL1        0.0115
     12 C         141.5334  141.7804  168.9416 C.ar    1  UNL1        0.0589
     13 CL        142.7252  142.6666  169.1507 Cl      1  UNL1       -0.0822
     14 C         141.3209  141.1092  167.6170 C.ar    1  UNL1        0.0263
     15 C         141.5338  137.9213  161.8317 C.3     1  UNL1        0.0942
     16 C         143.8096  138.9180  162.5916 C.3     1  UNL1        0.0899
     17 N         142.4645  139.0917  161.9507 N.3     1  UNL1       -0.2658
     18 C         142.0502  140.4355  161.4289 C.3     1  UNL1        0.1057
     19 C         141.1830  141.3297  162.2645 C.ar    1  UNL1        0.0234
     20 C         139.7807  141.7520  161.9400 C.ar    1  UNL1        0.0040
     21 C         139.2967  142.6419  163.0463 C.ar    1  UNL1        0.0062
     22 C         137.9941  143.3525  163.2657 C.ar    1  UNL1        0.0005
     23 C         137.7946  144.1907  164.4935 C.ar    1  UNL1        0.0000
     24 C         138.8978  144.3185  165.5018 C.ar    1  UNL1        0.0005
     25 C         140.2005  143.6079  165.2823 C.ar    1  UNL1        0.0065
     26 C         140.3999  142.7697  164.0546 C.ar    1  UNL1        0.0292
     27 S         141.5656  141.9587  163.5714 S.2     1  UNL1       -0.0899
@<TRIPOS>BOND
     1    16    17    1
     2    17    15    1
     3    15     1    1
     4     1     2    1
     5     2     3    1
     6     3     4    1
     7     4     5    1
     8     5     8    1
     9     8     9   ar
    10     9    10   ar
    11    10    11   ar
    12    11    12   ar
    13    12    13    1
    14    12    14   ar
    15     5     6   am
    16     6     7    2
    17    17    18    1
    18    18    19    1
    19    19    20   ar
    20    20    21   ar
    21    21    22   ar
    22    22    23   ar
    23    23    24   ar
    24    24    25   ar
    25    25    26   ar
    26    26    27   ar
    27     6     2   am
    28    27    19   ar
    29    14     8   ar
    30    26    21   ar
@<TRIPOS>MOLECULE
*****
 27 30 0 0 0
SMALL
GASTEIGER

@<TRIPOS>ATOM
      1 C         141.3490  143.7893  161.9985 C.3     1  UNL1        0.1123
      2 N         141.5726  142.8468  163.1438 N.am    1  UNL1       -0.2606
      3 C         142.3633  141.5730  163.0960 C.3     1  UNL1        0.1169
      4 C         142.3241  140.9516  164.4606 C.3     1  UNL1        0.1212
      5 N         141.5092  141.8413  165.3519 N.am    1  UNL1       -0.2413
      6 C         141.0447  143.0127  164.5381 C.2     1  UNL1        0.3111
      7 O         140.2006  144.1501  165.0318 O.2     1  UNL1       -0.2520
      8 C         141.2111  141.6018  166.8024 C.ar    1  UNL1        0.0562
      9 C         141.3042  140.2157  167.3683 C.ar    1  UNL1        0.0150
     10 C         141.0061  139.9763  168.8187 C.ar    1  UNL1        0.0021
     11 C         140.6149  141.1228  169.7032 C.ar    1  UNL1        0.0115
     12 C         140.5218  142.5089  169.1373 C.ar    1  UNL1        0.0589
     13 CL        140.1306  143.6553  170.0218 Cl      1  UNL1       -0.0822
     14 C         140.8199  142.7483  167.6869 C.ar    1  UNL1        0.0263
     15 C         139.9627  144.2635  161.6771 C.3     1  UNL1        0.0942
     16 C         139.2411  143.0673  159.4865 C.3     1  UNL1        0.0899
     17 N         139.0149  143.3649  160.9392 N.3     1  UNL1       -0.2658
     18 C         137.8410  142.7641  161.6540 C.3     1  UNL1        0.1057
     19 C         138.0434  141.6088  162.5890 C.ar    1  UNL1        0.0234
     20 C         137.7755  141.6116  164.0649 C.ar    1  UNL1        0.0040
     21 C         138.1157  140.2524  164.6004 C.ar    1  UNL1        0.0062
     22 C         138.0519  139.6733  165.9827 C.ar    1  UNL1        0.0005
     23 C         138.4662  138.2514  166.2199 C.ar    1  UNL1        0.0000
     24 C         138.9443  137.4085  165.0750 C.ar    1  UNL1        0.0005
     25 C         139.0081  137.9875  163.6928 C.ar    1  UNL1        0.0065
     26 C         138.5938  139.4095  163.4555 C.ar    1  UNL1        0.0292
     27 S         138.5491  140.2478  162.2124 S.2     1  UNL1       -0.0899
@<TRIPOS>BOND
     1    16    17    1
     2    17    15    1
     3    15     1    1
     4     1     2    1
     5     2     3    1
     6     3     4    1
     7     4     5    1
     8     5     8    1
     9     8     9   ar
    10     9    10   ar
    11    10    11   ar
    12    11    12   ar
    13    12    13    1
    14    12    14   ar
    15     5     6   am
    16     6     7    2
    17    17    18    1
    18    18    19    1
    19    19    20   ar
    20    20    21   ar
    21    21    22   ar
    22    22    23   ar
    23    23    24   ar
    24    24    25   ar
    25    25    26   ar
    26    26    27   ar
    27     6     2   am
    28    27    19   ar
    29    14     8   ar
    30    26    21   ar
