@<TRIPOS>MOLECULE
*****
 28 31 0 0 0
SMALL
GASTEIGER

@<TRIPOS>ATOM
      1 C         139.4888  141.5873  164.6649 C.ar    1  UNL1        0.0681
      2 C         140.1057  141.0620  163.4025 C.ar    1  UNL1        0.0208
      3 C         139.6306  141.5626  162.0708 C.ar    1  UNL1        0.0384
      4 C         138.5384  142.5884  162.0014 C.ar    1  UNL1        0.1386
      5 C         137.9215  143.1137  163.2637 C.ar    1  UNL1        0.0384
      6 C         138.3967  142.6132  164.5955 C.ar    1  UNL1        0.0208
      7 C         137.9828  139.4078  166.0725 C.3     1  UNL1        0.0723
      8 C         139.2110  139.9969  166.7005 C.ar    1  UNL1        0.1268
      9 N         139.6862  139.4963  168.0322 N.ar    1  UNL1       -0.2318
     10 C         140.9145  140.0854  168.6602 C.ar    1  UNL1        0.0894
     11 C         141.3897  139.5848  169.9919 C.ar    1  UNL1        0.0194
     12 C         142.6179  140.1740  170.6198 C.ar    1  UNL1        0.0039
     13 C         143.3710  141.2637  169.9160 C.ar    1  UNL1        0.0299
     14 C         142.8958  141.7644  168.5843 C.ar    1  UNL1        0.1462
     15 F         143.6488  142.8541  167.8805 F       1  UNL1       -0.2040
     16 C         141.6675  141.1752  167.9564 C.ar    1  UNL1        0.1015
     17 C         141.1923  141.6758  166.6246 C.ar    1  UNL1        0.2691
     18 O         141.9453  142.7656  165.9208 O.2     1  UNL1       -0.2665
     19 N         139.9641  141.0867  165.9967 N.ar    1  UNL1       -0.2625
     20 O         138.0632  143.0891  160.6696 O.3     1  UNL1       -0.4754
     21 C         138.8412  142.7703  159.4274 C.3     1  UNL1        0.2068
     22 C         139.9412  143.6846  158.9760 C.3     1  UNL1        0.0646
     23 C         140.2069  144.9613  159.7173 C.3     1  UNL1        0.0759
     24 N         140.9055  144.9267  161.0442 N.3     1  UNL1       -0.2726
     25 C         142.1538  144.1585  161.3637 C.3     1  UNL1        0.0721
     26 C         142.4984  144.4112  162.8015 C.3     1  UNL1        0.0188
     27 C         141.4632  145.3356  163.3708 C.3     1  UNL1        0.0188
     28 C         140.4787  145.6541  162.2847 C.3     1  UNL1        0.0721
@<TRIPOS>BOND
     1     7     8    1
     2     8     9   ar
     3     9    10   ar
     4    10    11   ar
     5    11    12   ar
     6    12    13   ar
     7    13    14   ar
     8    14    15    1
     9    14    16   ar
    10    16    17   ar
    11    17    18    2
    12    17    19   ar
    13    19     1    1
    14     1     2   ar
    15     2     3   ar
    16     3     4   ar
    17     4    20    1
    18    20    21    1
    19    21    22    1
    20    22    23    1
    21    23    24    1
    22    24    25    1
    23    25    26    1
    24    26    27    1
    25    27    28    1
    26     4     5   ar
    27     5     6   ar
    28    19     8   ar
    29     6     1   ar
    30    16    10   ar
    31    28    24    1
@<TRIPOS>MOLECULE
*****
 28 31 0 0 0
SMALL
GASTEIGER

@<TRIPOS>ATOM
      1 C         140.5958  139.2072  164.9258 C.ar    1  UNL1        0.0681
      2 C         141.1191  137.8195  164.7009 C.ar    1  UNL1        0.0208
      3 C         141.3218  137.3116  163.3042 C.ar    1  UNL1        0.0384
      4 C         141.0011  138.1913  162.1324 C.ar    1  UNL1        0.1386
      5 C         140.4778  139.5790  162.3573 C.ar    1  UNL1        0.0384
      6 C         140.2751  140.0869  163.7540 C.ar    1  UNL1        0.0208
      7 C         138.1094  138.4817  166.4396 C.3     1  UNL1        0.0723
      8 C         139.1499  139.3523  167.0795 C.ar    1  UNL1        0.1268
      9 N         138.9472  139.8602  168.4763 N.ar    1  UNL1       -0.2318
     10 C         139.9877  140.7308  169.1162 C.ar    1  UNL1        0.0894
     11 C         139.7850  141.2387  170.5130 C.ar    1  UNL1        0.0194
     12 C         140.8255  142.1092  171.1528 C.ar    1  UNL1        0.0039
     13 C         142.0687  142.4720  170.3959 C.ar    1  UNL1        0.0299
     14 C         142.2714  141.9642  168.9991 C.ar    1  UNL1        0.1462
     15 F         143.5145  142.3269  168.2422 F       1  UNL1       -0.2040
     16 C         141.2309  141.0936  168.3593 C.ar    1  UNL1        0.1015
     17 C         141.4336  140.5857  166.9625 C.ar    1  UNL1        0.2691
     18 O         142.6767  140.9484  166.2056 O.2     1  UNL1       -0.2665
     19 N         140.3931  139.7151  166.3226 N.ar    1  UNL1       -0.2625
     20 O         141.2038  137.6834  160.7355 O.3     1  UNL1       -0.4754
     21 C         142.0467  138.4619  159.7694 C.3     1  UNL1        0.2068
     22 C         143.4543  138.8325  160.1316 C.3     1  UNL1        0.0646
     23 C         143.7654  140.2201  160.6090 C.3     1  UNL1        0.0759
     24 N         144.4105  140.4258  161.9475 N.3     1  UNL1       -0.2726
     25 C         145.1588  141.6493  162.3869 C.3     1  UNL1        0.0721
     26 C         145.6314  141.4238  163.7925 C.3     1  UNL1        0.0188
     27 C         145.1752  140.0608  164.2219 C.3     1  UNL1        0.0188
     28 C         144.4206  139.4440  163.0815 C.3     1  UNL1        0.0721
@<TRIPOS>BOND
     1     7     8    1
     2     8     9   ar
     3     9    10   ar
     4    10    11   ar
     5    11    12   ar
     6    12    13   ar
     7    13    14   ar
     8    14    15    1
     9    14    16   ar
    10    16    17   ar
    11    17    18    2
    12    17    19   ar
    13    19     1    1
    14     1     2   ar
    15     2     3   ar
    16     3     4   ar
    17     4    20    1
    18    20    21    1
    19    21    22    1
    20    22    23    1
    21    23    24    1
    22    24    25    1
    23    25    26    1
    24    26    27    1
    25    27    28    1
    26     4     5   ar
    27     5     6   ar
    28    19     8   ar
    29     6     1   ar
    30    16    10   ar
    31    28    24    1
@<TRIPOS>MOLECULE
*****
 28 31 0 0 0
SMALL
GASTEIGER

@<TRIPOS>ATOM
      1 C         143.0288  140.1942  164.7094 C.ar    1  UNL1        0.0681
      2 C         142.0473  139.6992  163.6889 C.ar    1  UNL1        0.0208
      3 C         142.4279  139.6619  162.2385 C.ar    1  UNL1        0.0384
      4 C         143.7901  140.1197  161.8086 C.ar    1  UNL1        0.1386
      5 C         144.7717  140.6146  162.8292 C.ar    1  UNL1        0.0384
      6 C         144.3910  140.6519  164.2796 C.ar    1  UNL1        0.0208
      7 C         143.9334  138.0082  166.5542 C.3     1  UNL1        0.0723
      8 C         143.1004  139.1385  167.0823 C.ar    1  UNL1        0.1268
      9 N         142.7197  139.1757  168.5327 N.ar    1  UNL1       -0.2318
     10 C         141.8867  140.3059  169.0607 C.ar    1  UNL1        0.0894
     11 C         141.5060  140.3431  170.5111 C.ar    1  UNL1        0.0194
     12 C         140.6730  141.4733  171.0391 C.ar    1  UNL1        0.0039
     13 C         140.2208  142.5663  170.1166 C.ar    1  UNL1        0.0299
     14 C         140.6014  142.5291  168.6663 C.ar    1  UNL1        0.1462
     15 F         140.1492  143.6221  167.7439 F       1  UNL1       -0.2040
     16 C         141.4344  141.3989  168.1383 C.ar    1  UNL1        0.1015
     17 C         141.8151  141.3616  166.6878 C.ar    1  UNL1        0.2691
     18 O         141.3629  142.4546  165.7654 O.2     1  UNL1       -0.2665
     19 N         142.6481  140.2314  166.1599 N.ar    1  UNL1       -0.2625
     20 O         144.1709  140.0824  160.3582 O.3     1  UNL1       -0.4754
     21 C         143.8016  141.2227  159.4564 C.3     1  UNL1        0.2068
     22 C         143.9894  142.6368  159.9200 C.3     1  UNL1        0.0646
     23 C         142.8141  143.4258  160.4163 C.3     1  UNL1        0.0759
     24 N         142.8739  144.0983  161.7557 N.3     1  UNL1       -0.2726
     25 C         141.7292  144.7652  162.4594 C.3     1  UNL1        0.0721
     26 C         142.2367  145.3011  163.7652 C.3     1  UNL1        0.0188
     27 C         143.6950  144.9654  163.8687 C.3     1  UNL1        0.0188
     28 C         144.0888  144.2220  162.6267 C.3     1  UNL1        0.0721
@<TRIPOS>BOND
     1     7     8    1
     2     8     9   ar
     3     9    10   ar
     4    10    11   ar
     5    11    12   ar
     6    12    13   ar
     7    13    14   ar
     8    14    15    1
     9    14    16   ar
    10    16    17   ar
    11    17    18    2
    12    17    19   ar
    13    19     1    1
    14     1     2   ar
    15     2     3   ar
    16     3     4   ar
    17     4    20    1
    18    20    21    1
    19    21    22    1
    20    22    23    1
    21    23    24    1
    22    24    25    1
    23    25    26    1
    24    26    27    1
    25    27    28    1
    26     4     5   ar
    27     5     6   ar
    28    19     8   ar
    29     6     1   ar
    30    16    10   ar
    31    28    24    1
@<TRIPOS>MOLECULE
*****
 28 31 0 0 0
SMALL
GASTEIGER

@<TRIPOS>ATOM
      1 C         139.7470  139.3412  164.8667 C.ar    1  UNL1        0.0681
      2 C         139.0025  140.2027  163.8902 C.ar    1  UNL1        0.0208
      3 C         138.8134  139.7416  162.4755 C.ar    1  UNL1        0.0384
      4 C         139.3688  138.4190  162.0372 C.ar    1  UNL1        0.1386
      5 C         140.1133  137.5575  163.0137 C.ar    1  UNL1        0.0384
      6 C         140.3024  138.0186  164.4284 C.ar    1  UNL1        0.0208
      7 C         137.7659  138.5553  166.9780 C.3     1  UNL1        0.0723
      8 C         138.9455  139.4094  167.3372 C.ar    1  UNL1        0.1268
      9 N         139.1346  139.8706  168.7519 N.ar    1  UNL1       -0.2318
     10 C         140.3142  140.7247  169.1111 C.ar    1  UNL1        0.0894
     11 C         140.5033  141.1858  170.5258 C.ar    1  UNL1        0.0194
     12 C         141.6829  142.0399  170.8850 C.ar    1  UNL1        0.0039
     13 C         142.6735  142.4329  169.8293 C.ar    1  UNL1        0.0299
     14 C         142.4844  141.9717  168.4146 C.ar    1  UNL1        0.1462
     15 F         143.4750  142.3647  167.3589 F       1  UNL1       -0.2040
     16 C         141.3048  141.1177  168.0555 C.ar    1  UNL1        0.1015
     17 C         141.1157  140.6565  166.6406 C.ar    1  UNL1        0.2691
     18 O         142.1063  141.0494  165.5850 O.2     1  UNL1       -0.2665
     19 N         139.9361  139.8024  166.2815 N.ar    1  UNL1       -0.2625
     20 O         139.1797  137.9578  160.6224 O.3     1  UNL1       -0.4754
     21 C         139.2220  138.9499  159.4982 C.3     1  UNL1        0.2068
     22 C         140.5218  139.2524  158.8134 C.3     1  UNL1        0.0646
     23 C         141.5461  140.1112  159.4941 C.3     1  UNL1        0.0759
     24 N         142.3594  139.5548  160.6250 N.3     1  UNL1       -0.2726
     25 C         142.6200  140.2297  161.9391 C.3     1  UNL1        0.0721
     26 C         143.4765  139.3179  162.7666 C.3     1  UNL1        0.0188
     27 C         143.7453  138.0794  161.9641 C.3     1  UNL1        0.0188
     28 C         143.0549  138.2259  160.6404 C.3     1  UNL1        0.0721
@<TRIPOS>BOND
     1     7     8    1
     2     8     9   ar
     3     9    10   ar
     4    10    11   ar
     5    11    12   ar
     6    12    13   ar
     7    13    14   ar
     8    14    15    1
     9    14    16   ar
    10    16    17   ar
    11    17    18    2
    12    17    19   ar
    13    19     1    1
    14     1     2   ar
    15     2     3   ar
    16     3     4   ar
    17     4    20    1
    18    20    21    1
    19    21    22    1
    20    22    23    1
    21    23    24    1
    22    24    25    1
    23    25    26    1
    24    26    27    1
    25    27    28    1
    26     4     5   ar
    27     5     6   ar
    28    19     8   ar
    29     6     1   ar
    30    16    10   ar
    31    28    24    1
@<TRIPOS>MOLECULE
*****
 28 31 0 0 0
SMALL
GASTEIGER

@<TRIPOS>ATOM
      1 C         139.5349  141.4984  164.6153 C.ar    1  UNL1        0.0681
      2 C         140.4218  141.2941  163.4230 C.ar    1  UNL1        0.0208
      3 C         139.9727  141.7518  162.0669 C.ar    1  UNL1        0.0384
      4 C         138.6367  142.4137  161.9032 C.ar    1  UNL1        0.1386
      5 C         137.7498  142.6179  163.0955 C.ar    1  UNL1        0.0384
      6 C         138.1988  142.1603  164.4516 C.ar    1  UNL1        0.0208
      7 C         137.9940  139.3732  166.0676 C.3     1  UNL1        0.0723
      8 C         139.2136  139.9781  166.6975 C.ar    1  UNL1        0.1268
      9 N         139.6627  139.5204  168.0535 N.ar    1  UNL1       -0.2318
     10 C         140.8823  140.1254  168.6834 C.ar    1  UNL1        0.0894
     11 C         141.3314  139.6677  170.0395 C.ar    1  UNL1        0.0194
     12 C         142.5509  140.2727  170.6693 C.ar    1  UNL1        0.0039
     13 C         143.3213  141.3353  169.9432 C.ar    1  UNL1        0.0299
     14 C         142.8722  141.7930  168.5872 C.ar    1  UNL1        0.1462
     15 F         143.6426  142.8556  167.8610 F       1  UNL1       -0.2040
     16 C         141.6527  141.1880  167.9573 C.ar    1  UNL1        0.1015
     17 C         141.2035  141.6457  166.6012 C.ar    1  UNL1        0.2691
     18 O         141.9740  142.7083  165.8751 O.2     1  UNL1       -0.2665
     19 N         139.9840  141.0407  165.9714 N.ar    1  UNL1       -0.2625
     20 O         138.1875  142.8713  160.5472 O.3     1  UNL1       -0.4754
     21 C         138.4503  142.0173  159.3423 C.3     1  UNL1        0.2068
     22 C         137.9420  140.6069  159.2975 C.3     1  UNL1        0.0646
     23 C         138.9037  139.4596  159.3921 C.3     1  UNL1        0.0759
     24 N         139.1179  138.7669  160.7051 N.3     1  UNL1       -0.2726
     25 C         138.0622  138.4730  161.7295 C.3     1  UNL1        0.0721
     26 C         138.7172  137.7708  162.8819 C.3     1  UNL1        0.0188
     27 C         140.1777  137.6306  162.5697 C.3     1  UNL1        0.0188
     28 C         140.4253  138.2463  161.2244 C.3     1  UNL1        0.0721
@<TRIPOS>BOND
     1     7     8    1
     2     8     9   ar
     3     9    10   ar
     4    10    11   ar
     5    11    12   ar
     6    12    13   ar
     7    13    14   ar
     8    14    15    1
     9    14    16   ar
    10    16    17   ar
    11    17    18    2
    12    17    19   ar
    13    19     1    1
    14     1     2   ar
    15     2     3   ar
    16     3     4   ar
    17     4    20    1
    18    20    21    1
    19    21    22    1
    20    22    23    1
    21    23    24    1
    22    24    25    1
    23    25    26    1
    24    26    27    1
    25    27    28    1
    26     4     5   ar
    27     5     6   ar
    28    19     8   ar
    29     6     1   ar
    30    16    10   ar
    31    28    24    1
@<TRIPOS>MOLECULE
*****
 28 31 0 0 0
SMALL
GASTEIGER

@<TRIPOS>ATOM
      1 C         142.6335  139.1361  164.5469 C.ar    1  UNL1        0.0681
      2 C         143.8023  139.5699  163.7128 C.ar    1  UNL1        0.0208
      3 C         143.9819  139.0192  162.3292 C.ar    1  UNL1        0.0384
      4 C         142.9925  138.0348  161.7796 C.ar    1  UNL1        0.1386
      5 C         141.8237  137.6010  162.6137 C.ar    1  UNL1        0.0384
      6 C         141.6441  138.1517  163.9973 C.ar    1  UNL1        0.0208
      7 C         143.9133  137.7613  166.8861 C.3     1  UNL1        0.0723
      8 C         143.0939  138.9994  167.1002 C.ar    1  UNL1        0.1268
      9 N         142.9144  139.5501  168.4839 N.ar    1  UNL1       -0.2318
     10 C         142.0951  140.7882  168.6979 C.ar    1  UNL1        0.0894
     11 C         141.9156  141.3389  170.0816 C.ar    1  UNL1        0.0194
     12 C         141.0963  142.5769  170.2956 C.ar    1  UNL1        0.0039
     13 C         140.4564  143.2643  169.1260 C.ar    1  UNL1        0.0299
     14 C         140.6358  142.7137  167.7423 C.ar    1  UNL1        0.1462
     15 F         139.9959  143.4011  166.5727 F       1  UNL1       -0.2040
     16 C         141.4552  141.4756  167.5283 C.ar    1  UNL1        0.1015
     17 C         141.6347  140.9249  166.1446 C.ar    1  UNL1        0.2691
     18 O         140.9948  141.6123  164.9750 O.2     1  UNL1       -0.2665
     19 N         142.4540  139.6868  165.9306 N.ar    1  UNL1       -0.2625
     20 O         143.1720  137.4840  160.3959 O.3     1  UNL1       -0.4754
     21 C         142.6741  138.2569  159.2107 C.3     1  UNL1        0.2068
     22 C         141.9555  139.5581  159.4119 C.3     1  UNL1        0.0646
     23 C         140.4586  139.6088  159.3290 C.3     1  UNL1        0.0759
     24 N         139.6344  139.5044  160.5779 N.3     1  UNL1       -0.2726
     25 C         138.7244  138.3686  160.9414 C.3     1  UNL1        0.0721
     26 C         138.1030  138.6797  162.2707 C.3     1  UNL1        0.0188
     27 C         138.6289  140.0077  162.7289 C.3     1  UNL1        0.0188
     28 C         139.5754  140.5173  161.6826 C.3     1  UNL1        0.0721
@<TRIPOS>BOND
     1     7     8    1
     2     8     9   ar
     3     9    10   ar
     4    10    11   ar
     5    11    12   ar
     6    12    13   ar
     7    13    14   ar
     8    14    15    1
     9    14    16   ar
    10    16    17   ar
    11    17    18    2
    12    17    19   ar
    13    19     1    1
    14     1     2   ar
    15     2     3   ar
    16     3     4   ar
    17     4    20    1
    18    20    21    1
    19    21    22    1
    20    22    23    1
    21    23    24    1
    22    24    25    1
    23    25    26    1
    24    26    27    1
    25    27    28    1
    26     4     5   ar
    27     5     6   ar
    28    19     8   ar
    29     6     1   ar
    30    16    10   ar
    31    28    24    1
@<TRIPOS>MOLECULE
*****
 28 31 0 0 0
SMALL
GASTEIGER

@<TRIPOS>ATOM
      1 C         139.5611  139.3149  164.9939 C.ar    1  UNL1        0.0681
      2 C         138.6363  140.0649  164.0816 C.ar    1  UNL1        0.0208
      3 C         138.4155  139.5851  162.6778 C.ar    1  UNL1        0.0384
      4 C         139.1195  138.3552  162.1862 C.ar    1  UNL1        0.1386
      5 C         140.0443  137.6052  163.0984 C.ar    1  UNL1        0.0384
      6 C         140.2651  138.0850  164.5023 C.ar    1  UNL1        0.0208
      7 C         137.6387  138.5415  167.1633 C.3     1  UNL1        0.0723
      8 C         138.8207  139.4081  167.4825 C.ar    1  UNL1        0.1268
      9 N         139.0414  139.8880  168.8864 N.ar    1  UNL1       -0.2318
     10 C         140.2234  140.7547  169.2057 C.ar    1  UNL1        0.0894
     11 C         140.4442  141.2346  170.6096 C.ar    1  UNL1        0.0194
     12 C         141.6261  142.1012  170.9288 C.ar    1  UNL1        0.0039
     13 C         142.5873  142.4879  169.8441 C.ar    1  UNL1        0.0299
     14 C         142.3666  142.0081  168.4402 C.ar    1  UNL1        0.1462
     15 F         143.3278  142.3948  167.3555 F       1  UNL1       -0.2040
     16 C         141.1846  141.1414  168.1210 C.ar    1  UNL1        0.1015
     17 C         140.9638  140.6615  166.7171 C.ar    1  UNL1        0.2691
     18 O         141.9250  141.0482  165.6324 O.2     1  UNL1       -0.2665
     19 N         139.7819  139.7949  166.3979 N.ar    1  UNL1       -0.2625
     20 O         138.8987  137.8752  160.7822 O.3     1  UNL1       -0.4754
     21 C         139.5200  138.6105  159.6318 C.3     1  UNL1        0.2068
     22 C         140.9719  138.9842  159.6769 C.3     1  UNL1        0.0646
     23 C         141.3793  140.4242  159.5739 C.3     1  UNL1        0.0759
     24 N         140.9611  141.3996  160.6338 N.3     1  UNL1       -0.2726
     25 C         141.5853  141.5501  161.9895 C.3     1  UNL1        0.0721
     26 C         140.8552  142.6394  162.7177 C.3     1  UNL1        0.0188
     27 C         139.7797  143.1622  161.8122 C.3     1  UNL1        0.0188
     28 C         139.8451  142.3960  160.5243 C.3     1  UNL1        0.0721
@<TRIPOS>BOND
     1     7     8    1
     2     8     9   ar
     3     9    10   ar
     4    10    11   ar
     5    11    12   ar
     6    12    13   ar
     7    13    14   ar
     8    14    15    1
     9    14    16   ar
    10    16    17   ar
    11    17    18    2
    12    17    19   ar
    13    19     1    1
    14     1     2   ar
    15     2     3   ar
    16     3     4   ar
    17     4    20    1
    18    20    21    1
    19    21    22    1
    20    22    23    1
    21    23    24    1
    22    24    25    1
    23    25    26    1
    24    26    27    1
    25    27    28    1
    26     4     5   ar
    27     5     6   ar
    28    19     8   ar
    29     6     1   ar
    30    16    10   ar
    31    28    24    1
@<TRIPOS>MOLECULE
*****
 28 31 0 0 0
SMALL
GASTEIGER

@<TRIPOS>ATOM
      1 C         141.9298  141.6018  164.6149 C.ar    1  UNL1        0.0681
      2 C         142.7870  142.7183  164.0966 C.ar    1  UNL1        0.0208
      3 C         142.6425  143.1774  162.6760 C.ar    1  UNL1        0.0384
      4 C         141.6409  142.5199  161.7736 C.ar    1  UNL1        0.1386
      5 C         140.7837  141.4034  162.2918 C.ar    1  UNL1        0.0384
      6 C         140.9281  140.9443  163.7125 C.ar    1  UNL1        0.0208
      7 C         143.5611  139.1642  165.2450 C.3     1  UNL1        0.0723
      8 C         142.8899  139.9239  166.3507 C.ar    1  UNL1        0.1268
      9 N         143.0344  139.4648  167.7714 N.ar    1  UNL1       -0.2318
     10 C         142.3633  140.2246  168.8771 C.ar    1  UNL1        0.0894
     11 C         142.5078  139.7655  170.2977 C.ar    1  UNL1        0.0194
     12 C         141.8366  140.5252  171.4033 C.ar    1  UNL1        0.0039
     13 C         141.0210  141.7440  171.0882 C.ar    1  UNL1        0.0299
     14 C         140.8765  142.2031  169.6676 C.ar    1  UNL1        0.1462
     15 F         140.0608  143.4218  169.3525 F       1  UNL1       -0.2040
     16 C         141.5476  141.4433  168.5620 C.ar    1  UNL1        0.1015
     17 C         141.4031  141.9024  167.1412 C.ar    1  UNL1        0.2691
     18 O         140.5875  143.1212  166.8261 O.2     1  UNL1       -0.2665
     19 N         142.0743  141.1427  166.0356 N.ar    1  UNL1       -0.2625
     20 O         141.4964  142.9790  160.3528 O.3     1  UNL1       -0.4754
     21 C         141.4949  144.4449  160.0348 C.3     1  UNL1        0.2068
     22 C         140.2766  145.2726  160.3183 C.3     1  UNL1        0.0646
     23 C         139.9745  145.7062  161.7221 C.3     1  UNL1        0.0759
     24 N         139.1524  144.8278  162.6179 N.3     1  UNL1       -0.2726
     25 C         138.1780  143.7784  162.1711 C.3     1  UNL1        0.0721
     26 C         137.5837  143.1465  163.3948 C.3     1  UNL1        0.0188
     27 C         138.1907  143.8053  164.5980 C.3     1  UNL1        0.0188
     28 C         139.1602  144.8444  164.1178 C.3     1  UNL1        0.0721
@<TRIPOS>BOND
     1     7     8    1
     2     8     9   ar
     3     9    10   ar
     4    10    11   ar
     5    11    12   ar
     6    12    13   ar
     7    13    14   ar
     8    14    15    1
     9    14    16   ar
    10    16    17   ar
    11    17    18    2
    12    17    19   ar
    13    19     1    1
    14     1     2   ar
    15     2     3   ar
    16     3     4   ar
    17     4    20    1
    18    20    21    1
    19    21    22    1
    20    22    23    1
    21    23    24    1
    22    24    25    1
    23    25    26    1
    24    26    27    1
    25    27    28    1
    26     4     5   ar
    27     5     6   ar
    28    19     8   ar
    29     6     1   ar
    30    16    10   ar
    31    28    24    1
@<TRIPOS>MOLECULE
*****
 28 31 0 0 0
SMALL
GASTEIGER

@<TRIPOS>ATOM
      1 C         141.6245  139.6599  164.5099 C.ar    1  UNL1        0.0681
      2 C         140.5565  138.6559  164.1915 C.ar    1  UNL1        0.0208
      3 C         140.3076  138.2514  162.7688 C.ar    1  UNL1        0.0384
      4 C         141.1267  138.8508  161.6644 C.ar    1  UNL1        0.1386
      5 C         142.1947  139.8547  161.9828 C.ar    1  UNL1        0.0384
      6 C         142.4437  140.2593  163.4055 C.ar    1  UNL1        0.0208
      7 C         143.4755  138.0404  166.2279 C.3     1  UNL1        0.0723
      8 C         142.7989  139.2547  166.7918 C.ar    1  UNL1        0.1268
      9 N         143.0478  139.6592  168.2146 N.ar    1  UNL1       -0.2318
     10 C         142.3713  140.8734  168.7784 C.ar    1  UNL1        0.0894
     11 C         142.6202  141.2779  170.2012 C.ar    1  UNL1        0.0194
     12 C         141.9436  142.4921  170.7650 C.ar    1  UNL1        0.0039
     13 C         141.0181  143.3018  169.9061 C.ar    1  UNL1        0.0299
     14 C         140.7692  142.8974  168.4833 C.ar    1  UNL1        0.1462
     15 F         139.8437  143.7071  167.6243 F       1  UNL1       -0.2040
     16 C         141.4458  141.6832  167.9195 C.ar    1  UNL1        0.1015
     17 C         141.1969  141.2786  166.4966 C.ar    1  UNL1        0.2691
     18 O         140.2714  142.0883  165.6376 O.2     1  UNL1       -0.2665
     19 N         141.8734  140.0644  165.9328 N.ar    1  UNL1       -0.2625
     20 O         140.8778  138.4462  160.2415 O.3     1  UNL1       -0.4754
     21 C         139.4992  138.5565  159.6607 C.3     1  UNL1        0.2068
     22 C         138.7586  139.8590  159.7289 C.3     1  UNL1        0.0646
     23 C         137.6702  140.0507  160.7431 C.3     1  UNL1        0.0759
     24 N         137.7134  141.2237  161.6770 N.3     1  UNL1       -0.2726
     25 C         138.1800  142.6074  161.3336 C.3     1  UNL1        0.0721
     26 C         138.0525  143.4579  162.5626 C.3     1  UNL1        0.0188
     27 C         137.5071  142.5999  163.6656 C.3     1  UNL1        0.0188
     28 C         137.2975  141.2191  163.1182 C.3     1  UNL1        0.0721
@<TRIPOS>BOND
     1     7     8    1
     2     8     9   ar
     3     9    10   ar
     4    10    11   ar
     5    11    12   ar
     6    12    13   ar
     7    13    14   ar
     8    14    15    1
     9    14    16   ar
    10    16    17   ar
    11    17    18    2
    12    17    19   ar
    13    19     1    1
    14     1     2   ar
    15     2     3   ar
    16     3     4   ar
    17     4    20    1
    18    20    21    1
    19    21    22    1
    20    22    23    1
    21    23    24    1
    22    24    25    1
    23    25    26    1
    24    26    27    1
    25    27    28    1
    26     4     5   ar
    27     5     6   ar
    28    19     8   ar
    29     6     1   ar
    30    16    10   ar
    31    28    24    1
