@<TRIPOS>MOLECULE
*****
 37 41 0 0 0
SMALL
GASTEIGER

@<TRIPOS>ATOM
      1 C         143.8231  142.0517  161.5032 C.ar    1  UNL1        0.1233
      2 C         143.3560  141.0430  162.5103 C.ar    1  UNL1        0.1181
      3 N         144.5417  140.6178  163.3247 N.ar    1  UNL1       -0.2208
      4 N         145.7417  141.3638  162.8210 N.ar    1  UNL1       -0.0633
      5 N         145.2975  142.2500  161.6952 N.ar    1  UNL1       -0.1287
      6 C         140.8667  144.1529  159.8924 C.ar    1  UNL1        0.1547
      7 C         141.7236  143.4634  160.9123 C.ar    1  UNL1        0.0400
      8 C         142.9662  142.7412  160.4832 C.ar    1  UNL1        0.0241
      9 C         143.3520  142.7085  159.0340 C.ar    1  UNL1        0.0033
     10 C         142.4952  143.3979  158.0141 C.ar    1  UNL1        0.0207
     11 C         141.2525  144.1201  158.4432 C.ar    1  UNL1        0.0994
     12 N         140.3956  144.8096  157.4232 N.ar    1  UNL1       -0.2839
     13 C         139.4161  144.1462  156.5010 C.ar    1  UNL1        0.1826
     14 N         138.7830  145.2101  155.6541 N.ar    1  UNL1       -0.2280
     15 C         139.3712  146.5312  156.0529 C.ar    1  UNL1        0.0786
     16 C         139.0237  147.8654  155.4621 C.3     1  UNL1        0.0538
     17 C         140.3678  146.2836  157.1463 C.ar    1  UNL1        0.0963
     18 C         139.7201  146.0383  161.2637 C.3     1  UNL1        0.2525
     19 O         139.6240  144.8751  160.3215 O.3     1  UNL1       -0.4700
     20 C         144.5297  139.6216  164.4461 C.3     1  UNL1        0.2138
     21 C         143.2552  139.3395  165.1851 C.2     1  UNL1        0.2511
     22 O         142.5456  138.0331  164.9849 O.2     1  UNL1       -0.2727
     23 N         142.6903  140.3636  166.1241 N.am    1  UNL1       -0.2697
     24 C         141.4158  140.0815  166.8631 C.3     1  UNL1        0.1205
     25 C         141.2123  140.6306  168.2441 C.ar    1  UNL1       -0.0023
     26 C         140.3118  141.8112  168.4567 C.ar    1  UNL1       -0.0026
     27 C         140.1083  142.3603  169.8377 C.ar    1  UNL1       -0.0003
     28 C         140.8053  141.7287  171.0061 C.ar    1  UNL1       -0.0000
     29 C         141.7058  140.5481  170.7936 C.ar    1  UNL1       -0.0003
     30 C         141.9093  139.9990  169.4126 C.ar    1  UNL1       -0.0026
     31 C         143.3999  141.6699  166.3242 C.3     1  UNL1        0.1205
     32 C         143.0269  142.8612  165.4927 C.ar    1  UNL1       -0.0023
     33 C         144.0955  143.7726  164.9661 C.ar    1  UNL1       -0.0026
     34 C         143.7224  144.9640  164.1346 C.ar    1  UNL1       -0.0003
     35 C         142.2806  145.2439  163.8296 C.ar    1  UNL1       -0.0000
     36 C         141.2120  144.3324  164.3562 C.ar    1  UNL1       -0.0003
     37 C         141.5851  143.1411  165.1877 C.ar    1  UNL1       -0.0026
@<TRIPOS>BOND
     1    18    19    1
     2    19     6    1
     3     6     7   ar
     4     7     8   ar
     5     8     1    1
     6     1     2   ar
     7     2     3   ar
     8     3    20    1
     9    20    21    1
    10    21    22    2
    11    21    23   am
    12    23    24    1
    13    24    25    1
    14    25    26   ar
    15    26    27   ar
    16    27    28   ar
    17    28    29   ar
    18    29    30   ar
    19    23    31    1
    20    31    32    1
    21    32    33   ar
    22    33    34   ar
    23    34    35   ar
    24    35    36   ar
    25    36    37   ar
    26     3     4   ar
    27     4     5   ar
    28     8     9   ar
    29     9    10   ar
    30    10    11   ar
    31    11    12    1
    32    12    13   ar
    33    13    14   ar
    34    14    15   ar
    35    15    16    1
    36    15    17   ar
    37    11     6   ar
    38    17    12   ar
    39     5     1   ar
    40    30    25   ar
    41    37    32   ar
@<TRIPOS>MOLECULE
*****
 37 41 0 0 0
SMALL
GASTEIGER

@<TRIPOS>ATOM
      1 C         140.8665  144.1135  160.5354 C.ar    1  UNL1        0.1233
      2 C         139.9065  143.2812  161.3327 C.ar    1  UNL1        0.1181
      3 N         138.9969  144.2109  162.0800 N.ar    1  UNL1       -0.2208
      4 N         139.3949  145.6178  161.7446 N.ar    1  UNL1       -0.0633
      5 N         140.5503  145.5575  160.7900 N.ar    1  UNL1       -0.1287
      6 C         143.0374  143.4194  157.2865 C.ar    1  UNL1        0.1547
      7 C         141.9518  143.9397  158.1813 C.ar    1  UNL1        0.0400
      8 C         141.9522  143.5931  159.6407 C.ar    1  UNL1        0.0241
      9 C         143.0382  142.7261  160.2053 C.ar    1  UNL1        0.0033
     10 C         144.1239  142.2058  159.3105 C.ar    1  UNL1        0.0207
     11 C         144.1234  142.5524  157.8511 C.ar    1  UNL1        0.0994
     12 N         145.2091  142.0320  156.9564 N.ar    1  UNL1       -0.2839
     13 C         145.0692  140.9280  155.9506 C.ar    1  UNL1        0.1826
     14 N         146.3989  140.7380  155.2829 N.ar    1  UNL1       -0.2280
     15 C         147.3607  141.7246  155.8761 C.ar    1  UNL1        0.0786
     16 C         148.8043  141.8834  155.5009 C.3     1  UNL1        0.0538
     17 C         146.6253  142.5243  156.9104 C.ar    1  UNL1        0.0963
     18 C         142.3718  145.0249  155.3554 C.3     1  UNL1        0.2525
     19 O         143.0370  143.7660  155.8271 O.3     1  UNL1       -0.4700
     20 C         137.8847  143.8050  163.0010 C.3     1  UNL1        0.2138
     21 C         137.7516  142.3742  163.4312 C.2     1  UNL1        0.2511
     22 O         136.9615  141.4104  162.5962 O.2     1  UNL1       -0.2727
     23 N         138.4084  141.9071  164.6962 N.am    1  UNL1       -0.2697
     24 C         138.2752  140.4763  165.1264 C.3     1  UNL1        0.1205
     25 C         139.2384  139.4465  164.6146 C.ar    1  UNL1       -0.0023
     26 C         138.9323  138.6945  163.3533 C.ar    1  UNL1       -0.0026
     27 C         139.8954  137.6647  162.8416 C.ar    1  UNL1       -0.0003
     28 C         141.1647  137.3869  163.5910 C.ar    1  UNL1       -0.0000
     29 C         141.4708  138.1389  164.8523 C.ar    1  UNL1       -0.0003
     30 C         140.5077  139.1687  165.3641 C.ar    1  UNL1       -0.0026
     31 C         139.1984  142.8709  165.5311 C.3     1  UNL1        0.1205
     32 C         140.6830  142.7046  165.6658 C.ar    1  UNL1       -0.0023
     33 C         141.5711  142.9011  164.4731 C.ar    1  UNL1       -0.0026
     34 C         143.0557  142.7347  164.6080 C.ar    1  UNL1       -0.0003
     35 C         143.6523  142.3720  165.9356 C.ar    1  UNL1       -0.0000
     36 C         142.7642  142.1755  167.1283 C.ar    1  UNL1       -0.0003
     37 C         141.2795  142.3419  166.9935 C.ar    1  UNL1       -0.0026
@<TRIPOS>BOND
     1    18    19    1
     2    19     6    1
     3     6     7   ar
     4     7     8   ar
     5     8     1    1
     6     1     2   ar
     7     2     3   ar
     8     3    20    1
     9    20    21    1
    10    21    22    2
    11    21    23   am
    12    23    24    1
    13    24    25    1
    14    25    26   ar
    15    26    27   ar
    16    27    28   ar
    17    28    29   ar
    18    29    30   ar
    19    23    31    1
    20    31    32    1
    21    32    33   ar
    22    33    34   ar
    23    34    35   ar
    24    35    36   ar
    25    36    37   ar
    26     3     4   ar
    27     4     5   ar
    28     8     9   ar
    29     9    10   ar
    30    10    11   ar
    31    11    12    1
    32    12    13   ar
    33    13    14   ar
    34    14    15   ar
    35    15    16    1
    36    15    17   ar
    37    11     6   ar
    38    17    12   ar
    39     5     1   ar
    40    30    25   ar
    41    37    32   ar
@<TRIPOS>MOLECULE
*****
 37 41 0 0 0
SMALL
GASTEIGER

@<TRIPOS>ATOM
      1 C         141.6044  143.0072  160.9344 C.ar    1  UNL1        0.1233
      2 C         141.7173  142.5582  162.3612 C.ar    1  UNL1        0.1181
      3 N         142.7298  143.4301  163.0428 N.ar    1  UNL1       -0.2208
      4 N         143.2427  144.4180  162.0373 N.ar    1  UNL1       -0.0633
      5 N         142.5472  144.1566  160.7343 N.ar    1  UNL1       -0.1287
      6 C         138.7302  140.8525  159.2473 C.ar    1  UNL1        0.1547
      7 C         139.6282  141.4483  160.2907 C.ar    1  UNL1        0.0400
      8 C         140.7064  142.4114  159.8910 C.ar    1  UNL1        0.0241
      9 C         140.8867  142.7788  158.4479 C.ar    1  UNL1        0.0033
     10 C         139.9887  142.1831  157.4045 C.ar    1  UNL1        0.0207
     11 C         138.9105  141.2199  157.8042 C.ar    1  UNL1        0.0994
     12 N         138.0125  140.6241  156.7608 N.ar    1  UNL1       -0.2839
     13 C         138.3742  139.5196  155.8126 C.ar    1  UNL1        0.1826
     14 N         137.1804  139.2411  154.9482 N.ar    1  UNL1       -0.2280
     15 C         136.0808  140.1736  155.3621 C.ar    1  UNL1        0.0786
     16 C         134.7080  140.2398  154.7613 C.3     1  UNL1        0.0538
     17 C         136.5950  141.0284  156.4823 C.ar    1  UNL1        0.0963
     18 C         137.5605  139.4128  161.0663 C.3     1  UNL1        0.2525
     19 O         137.6520  139.8893  159.6470 O.3     1  UNL1       -0.4700
     20 C         143.1548  143.3314  164.4780 C.3     1  UNL1        0.2138
     21 C         142.9374  142.0570  165.2386 C.2     1  UNL1        0.2511
     22 O         143.9294  140.9374  165.1252 O.2     1  UNL1       -0.2727
     23 N         141.7283  141.9020  166.1126 N.am    1  UNL1       -0.2697
     24 C         141.5110  140.6276  166.8732 C.3     1  UNL1        0.1205
     25 C         140.4869  139.6381  166.4019 C.ar    1  UNL1       -0.0023
     26 C         140.8168  138.6909  165.2866 C.ar    1  UNL1       -0.0026
     27 C         139.7926  137.7014  164.8153 C.ar    1  UNL1       -0.0003
     28 C         138.4386  137.6592  165.4593 C.ar    1  UNL1       -0.0000
     29 C         138.1087  138.6064  166.5746 C.ar    1  UNL1       -0.0003
     30 C         139.1328  139.5959  167.0459 C.ar    1  UNL1       -0.0026
     31 C         140.7364  143.0216  166.2259 C.3     1  UNL1        0.1205
     32 C         139.7314  143.2465  165.1354 C.ar    1  UNL1       -0.0023
     33 C         139.6156  144.5949  164.4886 C.ar    1  UNL1       -0.0026
     34 C         138.6105  144.8197  163.3980 C.ar    1  UNL1       -0.0003
     35 C         137.7213  143.6961  162.9544 C.ar    1  UNL1       -0.0000
     36 C         137.8370  142.3478  163.6012 C.ar    1  UNL1       -0.0003
     37 C         138.8421  142.1229  164.6917 C.ar    1  UNL1       -0.0026
@<TRIPOS>BOND
     1    18    19    1
     2    19     6    1
     3     6     7   ar
     4     7     8   ar
     5     8     1    1
     6     1     2   ar
     7     2     3   ar
     8     3    20    1
     9    20    21    1
    10    21    22    2
    11    21    23   am
    12    23    24    1
    13    24    25    1
    14    25    26   ar
    15    26    27   ar
    16    27    28   ar
    17    28    29   ar
    18    29    30   ar
    19    23    31    1
    20    31    32    1
    21    32    33   ar
    22    33    34   ar
    23    34    35   ar
    24    35    36   ar
    25    36    37   ar
    26     3     4   ar
    27     4     5   ar
    28     8     9   ar
    29     9    10   ar
    30    10    11   ar
    31    11    12    1
    32    12    13   ar
    33    13    14   ar
    34    14    15   ar
    35    15    16    1
    36    15    17   ar
    37    11     6   ar
    38    17    12   ar
    39     5     1   ar
    40    30    25   ar
    41    37    32   ar
@<TRIPOS>MOLECULE
*****
 37 41 0 0 0
SMALL
GASTEIGER

@<TRIPOS>ATOM
      1 C         138.5514  141.9569  161.6047 C.ar    1  UNL1        0.1233
      2 C         139.2778  140.7973  162.2191 C.ar    1  UNL1        0.1181
      3 N         138.4902  140.3348  163.4090 N.ar    1  UNL1       -0.2208
      4 N         137.2769  141.2086  163.5299 N.ar    1  UNL1       -0.0633
      5 N         137.3147  142.2111  162.4147 N.ar    1  UNL1       -0.1287
      6 C         138.8566  143.1548  157.8335 C.ar    1  UNL1        0.1547
      7 C         138.4227  142.3846  159.0452 C.ar    1  UNL1        0.0400
      8 C         138.9853  142.7272  160.3929 C.ar    1  UNL1        0.0241
      9 C         139.9818  143.8401  160.5287 C.ar    1  UNL1        0.0033
     10 C         140.4157  144.6103  159.3169 C.ar    1  UNL1        0.0207
     11 C         139.8531  144.2676  157.9693 C.ar    1  UNL1        0.0994
     12 N         140.2871  145.0379  156.7575 N.ar    1  UNL1       -0.2839
     13 C         141.3929  144.6554  155.8189 C.ar    1  UNL1        0.1826
     14 N         141.4806  145.7070  154.7529 N.ar    1  UNL1       -0.2280
     15 C         140.4290  146.7395  155.0326 C.ar    1  UNL1        0.0786
     16 C         140.1620  147.9695  154.2167 C.3     1  UNL1        0.0538
     17 C         139.6914  146.3260  156.2715 C.ar    1  UNL1        0.0963
     18 C         137.0318  142.0085  156.3823 C.3     1  UNL1        0.2525
     19 O         138.2941  142.8121  156.4858 O.3     1  UNL1       -0.4700
     20 C         138.8522  139.1981  164.3183 C.3     1  UNL1        0.2138
     21 C         138.7490  139.3650  165.8054 C.2     1  UNL1        0.2511
     22 O         137.5852  138.7770  166.5471 O.2     1  UNL1       -0.2727
     23 N         139.8093  140.1199  166.5507 N.am    1  UNL1       -0.2697
     24 C         139.7061  140.2869  168.0378 C.3     1  UNL1        0.1205
     25 C         140.7218  141.1108  168.7724 C.ar    1  UNL1       -0.0023
     26 C         140.4126  142.5326  169.1368 C.ar    1  UNL1       -0.0026
     27 C         141.4284  143.3565  169.8714 C.ar    1  UNL1       -0.0003
     28 C         142.7533  142.7586  170.2414 C.ar    1  UNL1       -0.0000
     29 C         143.0625  141.3368  169.8770 C.ar    1  UNL1       -0.0003
     30 C         142.0468  140.5129  169.1424 C.ar    1  UNL1       -0.0026
     31 C         140.9730  140.7079  165.8089 C.3     1  UNL1        0.1205
     32 C         140.8715  142.0858  165.2251 C.ar    1  UNL1       -0.0023
     33 C         141.9650  142.6084  164.3413 C.ar    1  UNL1       -0.0026
     34 C         141.8634  143.9864  163.7575 C.ar    1  UNL1       -0.0003
     35 C         140.6683  144.8418  164.0575 C.ar    1  UNL1       -0.0000
     36 C         139.5748  144.3192  164.9414 C.ar    1  UNL1       -0.0003
     37 C         139.6764  142.9413  165.5252 C.ar    1  UNL1       -0.0026
@<TRIPOS>BOND
     1    18    19    1
     2    19     6    1
     3     6     7   ar
     4     7     8   ar
     5     8     1    1
     6     1     2   ar
     7     2     3   ar
     8     3    20    1
     9    20    21    1
    10    21    22    2
    11    21    23   am
    12    23    24    1
    13    24    25    1
    14    25    26   ar
    15    26    27   ar
    16    27    28   ar
    17    28    29   ar
    18    29    30   ar
    19    23    31    1
    20    31    32    1
    21    32    33   ar
    22    33    34   ar
    23    34    35   ar
    24    35    36   ar
    25    36    37   ar
    26     3     4   ar
    27     4     5   ar
    28     8     9   ar
    29     9    10   ar
    30    10    11   ar
    31    11    12    1
    32    12    13   ar
    33    13    14   ar
    34    14    15   ar
    35    15    16    1
    36    15    17   ar
    37    11     6   ar
    38    17    12   ar
    39     5     1   ar
    40    30    25   ar
    41    37    32   ar
@<TRIPOS>MOLECULE
*****
 37 41 0 0 0
SMALL
GASTEIGER

@<TRIPOS>ATOM
      1 C         142.7948  137.3410  157.5329 C.ar    1  UNL1        0.1233
      2 C         142.2048  137.7361  158.8542 C.ar    1  UNL1        0.1181
      3 N         142.6989  139.1121  159.1896 N.ar    1  UNL1       -0.2208
      4 N         143.5944  139.5674  158.0756 N.ar    1  UNL1       -0.0633
      5 N         143.6536  138.4728  157.0518 N.ar    1  UNL1       -0.1287
      6 C         143.0804  133.5118  156.5299 C.ar    1  UNL1        0.1547
      7 C         143.3090  134.8107  157.2446 C.ar    1  UNL1        0.0400
      8 C         142.5661  136.0421  156.8183 C.ar    1  UNL1        0.0241
      9 C         141.5947  135.9747  155.6773 C.ar    1  UNL1        0.0033
     10 C         141.3661  134.6759  154.9627 C.ar    1  UNL1        0.0207
     11 C         142.1090  133.4444  155.3890 C.ar    1  UNL1        0.0994
     12 N         141.8803  132.1456  154.6743 N.ar    1  UNL1       -0.2839
     13 C         142.7960  131.5229  153.6625 C.ar    1  UNL1        0.1826
     14 N         142.1774  130.2338  153.2089 N.ar    1  UNL1       -0.2280
     15 C         140.8794  130.0598  153.9404 C.ar    1  UNL1        0.0786
     16 C         139.9316  128.9068  153.7922 C.3     1  UNL1        0.0538
     17 C         140.6958  131.2414  154.8461 C.ar    1  UNL1        0.0963
     18 C         145.0018  132.3965  157.8768 C.3     1  UNL1        0.2525
     19 O         143.8232  132.2804  156.9562 O.3     1  UNL1       -0.4700
     20 C         142.3576  139.8953  160.4226 C.3     1  UNL1        0.2138
     21 C         143.2694  139.8553  161.6129 C.2     1  UNL1        0.2511
     22 O         144.5573  140.6244  161.5973 O.2     1  UNL1       -0.2727
     23 N         142.8937  139.0463  162.8188 N.am    1  UNL1       -0.2697
     24 C         143.8055  139.0063  164.0091 C.3     1  UNL1        0.1205
     25 C         143.3811  139.6402  165.3007 C.ar    1  UNL1       -0.0023
     26 C         143.2572  141.1318  165.3990 C.ar    1  UNL1       -0.0026
     27 C         142.8328  141.7657  166.6906 C.ar    1  UNL1       -0.0003
     28 C         142.5323  140.9079  167.8838 C.ar    1  UNL1       -0.0000
     29 C         142.6562  139.4163  167.7855 C.ar    1  UNL1       -0.0003
     30 C         143.0806  138.7824  166.4939 C.ar    1  UNL1       -0.0026
     31 C         141.6058  138.2772  162.8343 C.3     1  UNL1        0.1205
     32 C         140.5030  138.6799  163.7678 C.ar    1  UNL1       -0.0023
     33 C         139.8556  137.6545  164.6505 C.ar    1  UNL1       -0.0026
     34 C         138.7527  138.0572  165.5840 C.ar    1  UNL1       -0.0003
     35 C         138.2971  139.4855  165.6347 C.ar    1  UNL1       -0.0000
     36 C         138.9445  140.5110  164.7519 C.ar    1  UNL1       -0.0003
     37 C         140.0474  140.1082  163.8184 C.ar    1  UNL1       -0.0026
@<TRIPOS>BOND
     1    18    19    1
     2    19     6    1
     3     6     7   ar
     4     7     8   ar
     5     8     1    1
     6     1     2   ar
     7     2     3   ar
     8     3    20    1
     9    20    21    1
    10    21    22    2
    11    21    23   am
    12    23    24    1
    13    24    25    1
    14    25    26   ar
    15    26    27   ar
    16    27    28   ar
    17    28    29   ar
    18    29    30   ar
    19    23    31    1
    20    31    32    1
    21    32    33   ar
    22    33    34   ar
    23    34    35   ar
    24    35    36   ar
    25    36    37   ar
    26     3     4   ar
    27     4     5   ar
    28     8     9   ar
    29     9    10   ar
    30    10    11   ar
    31    11    12    1
    32    12    13   ar
    33    13    14   ar
    34    14    15   ar
    35    15    16    1
    36    15    17   ar
    37    11     6   ar
    38    17    12   ar
    39     5     1   ar
    40    30    25   ar
    41    37    32   ar
@<TRIPOS>MOLECULE
*****
 37 41 0 0 0
SMALL
GASTEIGER

@<TRIPOS>ATOM
      1 C         140.6485  144.0626  160.4896 C.ar    1  UNL1        0.1233
      2 C         139.7677  143.2425  161.3849 C.ar    1  UNL1        0.1181
      3 N         138.8467  144.1773  162.1116 N.ar    1  UNL1       -0.2208
      4 N         139.1583  145.5751  161.6654 N.ar    1  UNL1       -0.0633
      5 N         140.2719  145.5042  160.6629 N.ar    1  UNL1       -0.1287
      6 C         143.4551  141.6976  158.9795 C.ar    1  UNL1        0.1547
      7 C         142.3855  142.2263  159.8885 C.ar    1  UNL1        0.0400
      8 C         141.7182  143.5339  159.5805 C.ar    1  UNL1        0.0241
      9 C         142.1205  144.3129  158.3634 C.ar    1  UNL1        0.0033
     10 C         143.1901  143.7842  157.4544 C.ar    1  UNL1        0.0207
     11 C         143.8574  142.4766  157.7624 C.ar    1  UNL1        0.0994
     12 N         144.9271  141.9479  156.8533 N.ar    1  UNL1       -0.2839
     13 C         144.7508  140.8863  155.8084 C.ar    1  UNL1        0.1826
     14 N         146.0756  140.6703  155.1389 N.ar    1  UNL1       -0.2280
     15 C         147.0707  141.5985  155.7700 C.ar    1  UNL1        0.0786
     16 C         148.5209  141.7164  155.4055 C.3     1  UNL1        0.0538
     17 C         146.3609  142.3881  156.8296 C.ar    1  UNL1        0.0963
     18 C         143.3154  139.2435  159.8206 C.3     1  UNL1        0.2525
     19 O         144.1224  140.3900  159.2876 O.3     1  UNL1       -0.4700
     20 C         137.7982  143.7834  163.1093 C.3     1  UNL1        0.2138
     21 C         137.6738  142.3523  163.5412 C.2     1  UNL1        0.2511
     22 O         136.6999  141.4429  162.8520 O.2     1  UNL1       -0.2727
     23 N         138.5230  141.8305  164.6621 N.am    1  UNL1       -0.2697
     24 C         138.3986  140.3995  165.0939 C.3     1  UNL1        0.1205
     25 C         139.2902  139.3541  164.4920 C.ar    1  UNL1       -0.0023
     26 C         140.3826  138.7365  165.3138 C.ar    1  UNL1       -0.0026
     27 C         141.2742  137.6912  164.7119 C.ar    1  UNL1       -0.0003
     28 C         141.0736  137.2635  163.2882 C.ar    1  UNL1       -0.0000
     29 C         139.9812  137.8812  162.4665 C.ar    1  UNL1       -0.0003
     30 C         139.0895  138.9265  163.0684 C.ar    1  UNL1       -0.0026
     31 C         139.4968  142.7400  165.3512 C.3     1  UNL1        0.1205
     32 C         140.8059  143.0704  164.6979 C.ar    1  UNL1       -0.0023
     33 C         141.1946  144.5026  164.4793 C.ar    1  UNL1       -0.0026
     34 C         142.5038  144.8330  163.8259 C.ar    1  UNL1       -0.0003
     35 C         143.4242  143.7312  163.3912 C.ar    1  UNL1       -0.0000
     36 C         143.0355  142.2991  163.6098 C.ar    1  UNL1       -0.0003
     37 C         141.7263  141.9687  164.2632 C.ar    1  UNL1       -0.0026
@<TRIPOS>BOND
     1    18    19    1
     2    19     6    1
     3     6     7   ar
     4     7     8   ar
     5     8     1    1
     6     1     2   ar
     7     2     3   ar
     8     3    20    1
     9    20    21    1
    10    21    22    2
    11    21    23   am
    12    23    24    1
    13    24    25    1
    14    25    26   ar
    15    26    27   ar
    16    27    28   ar
    17    28    29   ar
    18    29    30   ar
    19    23    31    1
    20    31    32    1
    21    32    33   ar
    22    33    34   ar
    23    34    35   ar
    24    35    36   ar
    25    36    37   ar
    26     3     4   ar
    27     4     5   ar
    28     8     9   ar
    29     9    10   ar
    30    10    11   ar
    31    11    12    1
    32    12    13   ar
    33    13    14   ar
    34    14    15   ar
    35    15    16    1
    36    15    17   ar
    37    11     6   ar
    38    17    12   ar
    39     5     1   ar
    40    30    25   ar
    41    37    32   ar
@<TRIPOS>MOLECULE
*****
 37 41 0 0 0
SMALL
GASTEIGER

@<TRIPOS>ATOM
      1 C         138.9913  140.5770  161.3643 C.ar    1  UNL1        0.1233
      2 C         139.4504  141.4652  162.4824 C.ar    1  UNL1        0.1181
      3 N         138.2373  141.9350  163.2292 N.ar    1  UNL1       -0.2208
      4 N         137.0284  141.3370  162.5726 N.ar    1  UNL1       -0.0633
      5 N         137.4944  140.4977  161.4201 N.ar    1  UNL1       -0.1287
      6 C         142.1804  138.8834  159.7176 C.ar    1  UNL1        0.1547
      7 C         141.2976  139.5716  160.7161 C.ar    1  UNL1        0.0400
      8 C         139.8740  139.8887  160.3657 C.ar    1  UNL1        0.0241
      9 C         139.3332  139.5177  159.0167 C.ar    1  UNL1        0.0033
     10 C         140.2159  138.8295  158.0182 C.ar    1  UNL1        0.0207
     11 C         141.6395  138.5124  158.3686 C.ar    1  UNL1        0.0994
     12 N         142.5223  137.8241  157.3700 N.ar    1  UNL1       -0.2839
     13 C         143.5261  138.4885  156.4751 C.ar    1  UNL1        0.1826
     14 N         144.1804  137.4257  155.6430 N.ar    1  UNL1       -0.2280
     15 C         143.5808  136.1044  156.0237 C.ar    1  UNL1        0.0786
     16 C         143.9426  134.7710  155.4395 C.3     1  UNL1        0.0538
     17 C         142.5561  136.3507  157.0910 C.ar    1  UNL1        0.0963
     18 C         143.9209  137.8636  161.3547 C.3     1  UNL1        0.2525
     19 O         143.6040  138.5663  160.0680 O.3     1  UNL1       -0.4700
     20 C         138.2337  142.8432  164.4230 C.3     1  UNL1        0.2138
     21 C         139.5194  143.1617  165.1270 C.2     1  UNL1        0.2511
     22 O         140.1866  144.4871  164.9069 O.2     1  UNL1       -0.2727
     23 N         140.1379  142.1550  166.0509 N.am    1  UNL1       -0.2697
     24 C         141.4236  142.4735  166.7549 C.3     1  UNL1        0.1205
     25 C         141.6117  142.0766  168.1892 C.ar    1  UNL1       -0.0023
     26 C         142.6526  141.0608  168.5560 C.ar    1  UNL1       -0.0026
     27 C         142.8407  140.6639  169.9903 C.ar    1  UNL1       -0.0003
     28 C         141.9877  141.2827  171.0577 C.ar    1  UNL1       -0.0000
     29 C         140.9468  142.2985  170.6909 C.ar    1  UNL1       -0.0003
     30 C         140.7587  142.6954  169.2567 C.ar    1  UNL1       -0.0026
     31 C         139.4707  140.8296  166.2710 C.3     1  UNL1        0.1205
     32 C         139.9338  139.6216  165.5121 C.ar    1  UNL1       -0.0023
     33 C         141.3945  139.2846  165.4575 C.ar    1  UNL1       -0.0026
     34 C         141.8575  138.0765  164.6986 C.ar    1  UNL1       -0.0003
     35 C         140.8600  137.2053  163.9943 C.ar    1  UNL1       -0.0000
     36 C         139.3994  137.5423  164.0489 C.ar    1  UNL1       -0.0003
     37 C         138.9363  138.7504  164.8078 C.ar    1  UNL1       -0.0026
@<TRIPOS>BOND
     1    18    19    1
     2    19     6    1
     3     6     7   ar
     4     7     8   ar
     5     8     1    1
     6     1     2   ar
     7     2     3   ar
     8     3    20    1
     9    20    21    1
    10    21    22    2
    11    21    23   am
    12    23    24    1
    13    24    25    1
    14    25    26   ar
    15    26    27   ar
    16    27    28   ar
    17    28    29   ar
    18    29    30   ar
    19    23    31    1
    20    31    32    1
    21    32    33   ar
    22    33    34   ar
    23    34    35   ar
    24    35    36   ar
    25    36    37   ar
    26     3     4   ar
    27     4     5   ar
    28     8     9   ar
    29     9    10   ar
    30    10    11   ar
    31    11    12    1
    32    12    13   ar
    33    13    14   ar
    34    14    15   ar
    35    15    16    1
    36    15    17   ar
    37    11     6   ar
    38    17    12   ar
    39     5     1   ar
    40    30    25   ar
    41    37    32   ar
@<TRIPOS>MOLECULE
*****
 37 41 0 0 0
SMALL
GASTEIGER

@<TRIPOS>ATOM
      1 C         139.7984  141.4776  160.0273 C.ar    1  UNL1        0.1233
      2 C         140.2311  142.0796  161.3312 C.ar    1  UNL1        0.1181
      3 N         139.1940  143.0806  161.7464 N.ar    1  UNL1       -0.2208
      4 N         138.1203  143.0972  160.6990 N.ar    1  UNL1       -0.0633
      5 N         138.4939  142.1065  159.6366 N.ar    1  UNL1       -0.1287
      6 C         142.7646  139.5021  158.2811 C.ar    1  UNL1        0.1547
      7 C         142.0230  140.5491  159.0579 C.ar    1  UNL1        0.0400
      8 C         140.5401  140.4304  159.2504 C.ar    1  UNL1        0.0241
      9 C         139.7989  139.2647  158.6660 C.ar    1  UNL1        0.0033
     10 C         140.5405  138.2176  157.8891 C.ar    1  UNL1        0.0207
     11 C         142.0234  138.3363  157.6967 C.ar    1  UNL1        0.0994
     12 N         142.7651  137.2892  156.9197 N.ar    1  UNL1       -0.2839
     13 C         143.5502  137.5155  155.6619 C.ar    1  UNL1        0.1826
     14 N         144.1221  136.1981  155.2291 N.ar    1  UNL1       -0.2280
     15 C         143.6904  135.1575  156.2195 C.ar    1  UNL1        0.0786
     16 C         144.0367  133.6987  156.1732 C.3     1  UNL1        0.0538
     17 C         142.8517  135.8319  157.2644 C.ar    1  UNL1        0.0963
     18 C         144.8064  140.7086  157.2202 C.3     1  UNL1        0.2525
     19 O         144.2475  139.6207  158.0886 O.3     1  UNL1       -0.4700
     20 C         139.2251  143.9180  162.9906 C.3     1  UNL1        0.2138
     21 C         140.2569  143.6540  164.0468 C.2     1  UNL1        0.2511
     22 O         141.5373  144.4355  164.0564 O.2     1  UNL1       -0.2727
     23 N         140.0085  142.6086  165.0933 N.am    1  UNL1       -0.2697
     24 C         141.0404  142.3445  166.1495 C.3     1  UNL1        0.1205
     25 C         141.9625  141.1686  166.0198 C.ar    1  UNL1       -0.0023
     26 C         141.9596  140.0942  167.0666 C.ar    1  UNL1       -0.0026
     27 C         142.8818  138.9182  166.9370 C.ar    1  UNL1       -0.0003
     28 C         143.8068  138.8166  165.7605 C.ar    1  UNL1       -0.0000
     29 C         143.8096  139.8910  164.7138 C.ar    1  UNL1       -0.0003
     30 C         142.8875  141.0669  164.8434 C.ar    1  UNL1       -0.0026
     31 C         138.7282  141.8271  165.0836 C.3     1  UNL1        0.1205
     32 C         138.7639  140.3283  165.1288 C.ar    1  UNL1       -0.0023
     33 C         138.1210  139.5968  166.2697 C.ar    1  UNL1       -0.0026
     34 C         138.1568  138.0979  166.3148 C.ar    1  UNL1       -0.0003
     35 C         138.8354  137.3305  165.2191 C.ar    1  UNL1       -0.0000
     36 C         139.4783  138.0620  164.0782 C.ar    1  UNL1       -0.0003
     37 C         139.4425  139.5609  164.0331 C.ar    1  UNL1       -0.0026
@<TRIPOS>BOND
     1    18    19    1
     2    19     6    1
     3     6     7   ar
     4     7     8   ar
     5     8     1    1
     6     1     2   ar
     7     2     3   ar
     8     3    20    1
     9    20    21    1
    10    21    22    2
    11    21    23   am
    12    23    24    1
    13    24    25    1
    14    25    26   ar
    15    26    27   ar
    16    27    28   ar
    17    28    29   ar
    18    29    30   ar
    19    23    31    1
    20    31    32    1
    21    32    33   ar
    22    33    34   ar
    23    34    35   ar
    24    35    36   ar
    25    36    37   ar
    26     3     4   ar
    27     4     5   ar
    28     8     9   ar
    29     9    10   ar
    30    10    11   ar
    31    11    12    1
    32    12    13   ar
    33    13    14   ar
    34    14    15   ar
    35    15    16    1
    36    15    17   ar
    37    11     6   ar
    38    17    12   ar
    39     5     1   ar
    40    30    25   ar
    41    37    32   ar
@<TRIPOS>MOLECULE
*****
 37 41 0 0 0
SMALL
GASTEIGER

@<TRIPOS>ATOM
      1 C         142.9524  137.3754  157.5611 C.ar    1  UNL1        0.1233
      2 C         142.6000  137.6599  158.9911 C.ar    1  UNL1        0.1181
      3 N         143.0721  139.0456  159.3181 N.ar    1  UNL1       -0.2208
      4 N         143.7163  139.6176  158.0901 N.ar    1  UNL1       -0.0633
      5 N         143.6423  138.5854  157.0043 N.ar    1  UNL1       -0.1287
      6 C         143.0635  133.5599  156.4750 C.ar    1  UNL1        0.1547
      7 C         143.3505  134.8311  157.2178 C.ar    1  UNL1        0.0400
      8 C         142.6653  136.1042  156.8183 C.ar    1  UNL1        0.0241
      9 C         141.6930  136.1062  155.6761 C.ar    1  UNL1        0.0033
     10 C         141.4060  134.8350  154.9334 C.ar    1  UNL1        0.0207
     11 C         142.0912  133.5619  155.3329 C.ar    1  UNL1        0.0994
     12 N         141.8041  132.2907  154.5900 N.ar    1  UNL1       -0.2839
     13 C         142.4872  131.8280  153.3374 C.ar    1  UNL1        0.1826
     14 N         141.8888  130.5104  152.9427 N.ar    1  UNL1       -0.2280
     15 C         140.8357  130.1587  153.9515 C.ar    1  UNL1        0.0786
     16 C         139.9845  128.9237  153.9435 C.3     1  UNL1        0.0538
     17 C         140.7834  131.2590  154.9696 C.ar    1  UNL1        0.0963
     18 C         144.8975  132.3238  157.8383 C.3     1  UNL1        0.2525
     19 O         143.7487  132.2868  156.8745 O.3     1  UNL1       -0.4700
     20 C         142.9257  139.7378  160.6407 C.3     1  UNL1        0.2138
     21 C         142.8029  138.9315  161.8996 C.2     1  UNL1        0.2511
     22 O         144.0290  138.3557  162.5441 O.2     1  UNL1       -0.2727
     23 N         141.4542  138.7011  162.5142 N.am    1  UNL1       -0.2697
     24 C         141.3313  137.8949  163.7731 C.3     1  UNL1        0.1205
     25 C         140.3700  138.3181  164.8440 C.ar    1  UNL1       -0.0023
     26 C         139.0647  137.5974  165.0076 C.ar    1  UNL1       -0.0026
     27 C         138.1034  138.0206  166.0785 C.ar    1  UNL1       -0.0003
     28 C         138.4474  139.1645  166.9858 C.ar    1  UNL1       -0.0000
     29 C         139.7527  139.8852  166.8221 C.ar    1  UNL1       -0.0003
     30 C         140.7140  139.4620  165.7512 C.ar    1  UNL1       -0.0026
     31 C         140.2281  139.2770  161.8697 C.3     1  UNL1        0.1205
     32 C         139.5293  140.4461  162.4979 C.ar    1  UNL1       -0.0023
     33 C         138.0589  140.3751  162.7853 C.ar    1  UNL1       -0.0026
     34 C         137.3601  141.5443  163.4135 C.ar    1  UNL1       -0.0003
     35 C         138.1319  142.7845  163.7545 C.ar    1  UNL1       -0.0000
     36 C         139.6024  142.8556  163.4671 C.ar    1  UNL1       -0.0003
     37 C         140.3011  141.6864  162.8388 C.ar    1  UNL1       -0.0026
@<TRIPOS>BOND
     1    18    19    1
     2    19     6    1
     3     6     7   ar
     4     7     8   ar
     5     8     1    1
     6     1     2   ar
     7     2     3   ar
     8     3    20    1
     9    20    21    1
    10    21    22    2
    11    21    23   am
    12    23    24    1
    13    24    25    1
    14    25    26   ar
    15    26    27   ar
    16    27    28   ar
    17    28    29   ar
    18    29    30   ar
    19    23    31    1
    20    31    32    1
    21    32    33   ar
    22    33    34   ar
    23    34    35   ar
    24    35    36   ar
    25    36    37   ar
    26     3     4   ar
    27     4     5   ar
    28     8     9   ar
    29     9    10   ar
    30    10    11   ar
    31    11    12    1
    32    12    13   ar
    33    13    14   ar
    34    14    15   ar
    35    15    16    1
    36    15    17   ar
    37    11     6   ar
    38    17    12   ar
    39     5     1   ar
    40    30    25   ar
    41    37    32   ar
