@<TRIPOS>MOLECULE
*****
 36 39 0 0 0
SMALL
GASTEIGER

@<TRIPOS>ATOM
      1 C         139.9651  141.4459  159.9043 C.3     1  UNL1        0.0545
      2 C         139.6101  140.2683  159.0457 C.3     1  UNL1        0.0162
      3 C         140.6702  139.2233  159.2308 C.3     1  UNL1        0.0100
      4 C         141.6804  139.7552  160.2037 C.3     1  UNL1        0.0704
      5 C         141.2446  141.1288  160.6199 C.3     1  UNL1        0.0243
      6 C         142.8320  140.0111  161.1301 C.2     1  UNL1        0.2248
      7 O         144.1767  140.3736  160.5728 O.2     1  UNL1       -0.2749
      8 N         142.6391  139.9044  162.6138 N.am    1  UNL1       -0.2760
      9 C         143.7906  140.1603  163.5403 C.3     1  UNL1        0.1149
     10 C         143.5976  140.0536  165.0240 C.3     1  UNL1        0.1137
     11 N         142.2529  139.6911  165.5812 N.pl3   1  UNL1       -0.2883
     12 C         141.1014  139.4352  164.6547 C.3     1  UNL1        0.1137
     13 C         141.2944  139.5419  163.1710 C.3     1  UNL1        0.1149
     14 C         142.0599  139.5844  167.0649 C.ar    1  UNL1        0.1535
     15 C         140.7909  140.0792  167.6935 C.ar    1  UNL1        0.0416
     16 C         140.5979  139.9725  169.1773 C.ar    1  UNL1        0.0951
     17 C         141.6737  139.3712  170.0323 C.ar    1  UNL1        0.1261
     18 N         142.9426  138.8765  169.4037 N.ar    1  UNL1       -0.1453
     19 N         143.1356  138.9832  167.9200 N.ar    1  UNL1       -0.1329
     20 C         139.3290  140.4671  169.8059 C.3     1  UNL1        0.4202
     21 F         138.0601  140.9618  170.4346 F       1  UNL1       -0.1658
     22 F         140.1248  141.1273  170.8926 F       1  UNL1       -0.1658
     23 F         138.5332  139.8070  168.7193 F       1  UNL1       -0.1658
     24 C         142.3569  138.4351  159.9811 C.3     1  UNL1        0.0082
     25 C         142.7582  138.0220  158.5961 C.3     1  UNL1        0.0005
     26 C         142.6309  137.6987  160.5738 C.3     1  UNL1        0.0005
     27 N         139.1787  142.7175  160.0258 N.3     1  UNL1       -0.2975
     28 H         139.6639  143.4185  159.4659 H       1  UNL1        0.1232
     29 C         138.0183  142.6614  162.3497 C.3     1  UNL1        0.1591
     30 C         137.7837  143.2720  163.6995 C.3     1  UNL1        0.1729
     31 O         138.4747  144.5492  164.0754 O.3     1  UNL1       -0.3511
     32 C         139.4004  145.2158  163.1014 C.3     1  UNL1        0.1437
     33 C         139.6350  144.6052  161.7516 C.3     1  UNL1        0.0503
     34 C         138.9440  143.3280  161.3757 C.3     1  UNL1        0.0865
     35 C         137.7322  140.0936  162.6220 C.3     1  UNL1        0.1742
     36 O         137.3273  141.3842  161.9739 O.3     1  UNL1       -0.3496
@<TRIPOS>BOND
     1    35    36    1
     2    29    36    1
     3    29    30    1
     4    30    31    1
     5    31    32    1
     6    32    33    1
     7    33    34    1
     8    34    27    1
     9     1    27    1
    10     1     2    1
    11     2     3    1
    12     3     4    1
    13     4     6    1
    14     6     7    2
    15     6     8   am
    16     8     9    1
    17     9    10    1
    18    10    11    1
    19    11    14    1
    20    14    15   ar
    21    15    16   ar
    22    16    20    1
    23    20    21    1
    24    20    22    1
    25    20    23    1
    26    16    17   ar
    27    17    18   ar
    28    18    19   ar
    29    11    12    1
    30    12    13    1
    31     4    24    1
    32    24    25    1
    33    24    26    1
    34     4     5    1
    35    34    29    1
    36     5     1    1
    37    13     8    1
    38    19    14   ar
    39    27    28    1
@<TRIPOS>MOLECULE
*****
 36 39 0 0 0
SMALL
GASTEIGER

@<TRIPOS>ATOM
      1 C         141.0934  141.7886  164.4828 C.3     1  UNL1        0.0545
      2 C         141.3512  140.8700  165.6402 C.3     1  UNL1        0.0162
      3 C         140.7935  139.5211  165.2946 C.3     1  UNL1        0.0100
      4 C         140.1909  139.6061  163.9236 C.3     1  UNL1        0.0704
      5 C         140.3763  141.0075  163.4219 C.3     1  UNL1        0.0243
      6 C         139.5203  139.3886  162.5996 C.2     1  UNL1        0.2248
      7 O         138.0332  139.5419  162.4779 O.2     1  UNL1       -0.2749
      8 N         140.3369  139.0179  161.3972 N.am    1  UNL1       -0.2760
      9 C         139.6664  138.8005  160.0731 C.3     1  UNL1        0.1149
     10 C         140.4831  138.4297  158.8708 C.3     1  UNL1        0.1137
     11 N         141.9702  138.2764  158.9925 N.pl3   1  UNL1       -0.2883
     12 C         142.6407  138.4939  160.3165 C.3     1  UNL1        0.1137
     13 C         141.8241  138.8646  161.5189 C.3     1  UNL1        0.1149
     14 C         142.7869  137.9057  157.7901 C.ar    1  UNL1        0.1535
     15 C         142.7789  136.4934  157.2845 C.ar    1  UNL1        0.0416
     16 C         143.5955  136.1227  156.0822 C.ar    1  UNL1        0.0951
     17 C         144.4202  137.1641  155.3855 C.ar    1  UNL1        0.1261
     18 N         144.4282  138.5763  155.8910 N.ar    1  UNL1       -0.1453
     19 N         143.6115  138.9470  157.0934 N.ar    1  UNL1       -0.1329
     20 C         143.5876  134.7105  155.5766 C.3     1  UNL1        0.4202
     21 F         143.5796  133.2983  155.0709 F       1  UNL1       -0.1658
     22 F         143.0065  135.1795  154.2757 F       1  UNL1       -0.1658
     23 F         144.1687  134.2414  156.8774 F       1  UNL1       -0.1658
     24 C         139.8654  138.1593  164.1485 C.3     1  UNL1        0.0082
     25 C         140.9619  137.1825  164.4545 C.3     1  UNL1        0.0005
     26 C         139.0307  137.6378  164.1455 C.3     1  UNL1        0.0005
     27 N         141.4840  143.2345  164.4007 N.3     1  UNL1       -0.2975
     28 H         141.0724  143.6972  165.2112 H       1  UNL1        0.1232
     29 C         139.9028  144.9447  163.2495 C.3     1  UNL1        0.1591
     30 C         139.5224  145.7572  162.0475 C.3     1  UNL1        0.1729
     31 O         140.3428  145.6723  160.7945 O.3     1  UNL1       -0.3511
     32 C         141.5435  144.7748  160.7437 C.3     1  UNL1        0.1437
     33 C         141.9239  143.9623  161.9457 C.3     1  UNL1        0.0503
     34 C         141.1036  144.0472  163.1986 C.3     1  UNL1        0.0865
     35 C         137.9475  144.0737  164.7220 C.3     1  UNL1        0.1742
     36 O         139.0824  145.0296  164.5024 O.3     1  UNL1       -0.3496
@<TRIPOS>BOND
     1    35    36    1
     2    29    36    1
     3    29    30    1
     4    30    31    1
     5    31    32    1
     6    32    33    1
     7    33    34    1
     8    34    27    1
     9     1    27    1
    10     1     2    1
    11     2     3    1
    12     3     4    1
    13     4     6    1
    14     6     7    2
    15     6     8   am
    16     8     9    1
    17     9    10    1
    18    10    11    1
    19    11    14    1
    20    14    15   ar
    21    15    16   ar
    22    16    20    1
    23    20    21    1
    24    20    22    1
    25    20    23    1
    26    16    17   ar
    27    17    18   ar
    28    18    19   ar
    29    11    12    1
    30    12    13    1
    31     4    24    1
    32    24    25    1
    33    24    26    1
    34     4     5    1
    35    34    29    1
    36     5     1    1
    37    13     8    1
    38    19    14   ar
    39    27    28    1
@<TRIPOS>MOLECULE
*****
 36 39 0 0 0
SMALL
GASTEIGER

@<TRIPOS>ATOM
      1 C         140.8105  141.6297  159.8625 C.3     1  UNL1        0.0545
      2 C         142.0490  141.4376  159.0384 C.3     1  UNL1        0.0162
      3 C         142.7332  140.1901  159.5134 C.3     1  UNL1        0.0100
      4 C         141.9175  139.6111  160.6312 C.3     1  UNL1        0.0704
      5 C         140.7292  140.5008  160.8469 C.3     1  UNL1        0.0243
      6 C         141.3242  138.8112  161.7528 C.2     1  UNL1        0.2248
      7 O         140.5315  137.5734  161.4539 O.2     1  UNL1       -0.2749
      8 N         141.5237  139.2491  163.1736 N.am    1  UNL1       -0.2760
      9 C         140.9305  138.4493  164.2953 C.3     1  UNL1        0.1149
     10 C         141.1300  138.8872  165.7160 C.3     1  UNL1        0.1137
     11 N         141.9228  140.1250  166.0150 N.pl3   1  UNL1       -0.2883
     12 C         142.5160  140.9248  164.8933 C.3     1  UNL1        0.1137
     13 C         142.3165  140.4869  163.4726 C.3     1  UNL1        0.1149
     14 C         142.1223  140.5630  167.4357 C.ar    1  UNL1        0.1535
     15 C         141.5604  141.8731  167.9026 C.ar    1  UNL1        0.0416
     16 C         141.7599  142.3110  169.3233 C.ar    1  UNL1        0.0951
     17 C         142.5213  141.4389  170.2770 C.ar    1  UNL1        0.1261
     18 N         143.0832  140.1289  169.8102 N.ar    1  UNL1       -0.1453
     19 N         142.8837  139.6910  168.3895 N.ar    1  UNL1       -0.1329
     20 C         141.1980  143.6211  169.7902 C.3     1  UNL1        0.4202
     21 F         140.6361  144.9311  170.2572 F       1  UNL1       -0.1658
     22 F         139.9058  143.3155  169.0925 F       1  UNL1       -0.1658
     23 F         142.4902  143.9266  170.4879 F       1  UNL1       -0.1658
     24 C         142.9817  138.5543  160.6499 C.3     1  UNL1        0.0082
     25 C         142.9665  137.4563  159.6280 C.3     1  UNL1        0.0005
     26 C         143.7651  138.3828  161.2205 C.3     1  UNL1        0.0005
     27 N         139.8262  142.7532  159.7262 N.3     1  UNL1       -0.2975
     28 H         140.1520  143.3385  158.9569 H       1  UNL1        0.1232
     29 C         138.4973  143.3309  161.8827 C.3     1  UNL1        0.1591
     30 C         138.2379  144.2457  163.0428 C.3     1  UNL1        0.1729
     31 O         139.0480  145.4974  163.2066 O.3     1  UNL1       -0.3511
     32 C         140.1174  145.8345  162.2104 C.3     1  UNL1        0.1437
     33 C         140.3768  144.9198  161.0502 C.3     1  UNL1        0.0503
     34 C         139.5667  143.6680  160.8864 C.3     1  UNL1        0.0865
     35 C         137.4107  141.2041  162.9052 C.3     1  UNL1        0.1742
     36 O         137.6872  142.0791  161.7188 O.3     1  UNL1       -0.3496
@<TRIPOS>BOND
     1    35    36    1
     2    29    36    1
     3    29    30    1
     4    30    31    1
     5    31    32    1
     6    32    33    1
     7    33    34    1
     8    34    27    1
     9     1    27    1
    10     1     2    1
    11     2     3    1
    12     3     4    1
    13     4     6    1
    14     6     7    2
    15     6     8   am
    16     8     9    1
    17     9    10    1
    18    10    11    1
    19    11    14    1
    20    14    15   ar
    21    15    16   ar
    22    16    20    1
    23    20    21    1
    24    20    22    1
    25    20    23    1
    26    16    17   ar
    27    17    18   ar
    28    18    19   ar
    29    11    12    1
    30    12    13    1
    31     4    24    1
    32    24    25    1
    33    24    26    1
    34     4     5    1
    35    34    29    1
    36     5     1    1
    37    13     8    1
    38    19    14   ar
    39    27    28    1
@<TRIPOS>MOLECULE
*****
 36 39 0 0 0
SMALL
GASTEIGER

@<TRIPOS>ATOM
      1 C         139.3533  140.8663  160.4891 C.3     1  UNL1        0.0545
      2 C         139.1010  139.5786  159.7624 C.3     1  UNL1        0.0162
      3 C         140.3640  138.7701  159.7997 C.3     1  UNL1        0.0100
      4 C         141.3968  139.5582  160.5494 C.3     1  UNL1        0.0704
      5 C         140.7721  140.8537  160.9755 C.3     1  UNL1        0.0243
      6 C         142.6133  140.0992  161.2403 C.2     1  UNL1        0.2248
      7 O         143.7675  140.6146  160.4327 O.2     1  UNL1       -0.2749
      8 N         142.6757  140.1248  162.7388 N.am    1  UNL1       -0.2760
      9 C         143.8923  140.6657  163.4297 C.3     1  UNL1        0.1149
     10 C         143.9546  140.6913  164.9282 C.3     1  UNL1        0.1137
     11 N         142.8004  140.1759  165.7358 N.pl3   1  UNL1       -0.2883
     12 C         141.5839  139.6349  165.0448 C.3     1  UNL1        0.1137
     13 C         141.5215  139.6094  163.5463 C.3     1  UNL1        0.1149
     14 C         142.8627  140.2014  167.2343 C.ar    1  UNL1        0.1535
     15 C         142.9357  141.5124  167.9596 C.ar    1  UNL1        0.0416
     16 C         142.9980  141.5379  169.4581 C.ar    1  UNL1        0.0951
     17 C         142.9873  140.2526  170.2312 C.ar    1  UNL1        0.1261
     18 N         142.9143  138.9417  169.5059 N.ar    1  UNL1       -0.1453
     19 N         142.8520  138.9161  168.0074 N.ar    1  UNL1       -0.1329
     20 C         143.0710  142.8488  170.1835 C.3     1  UNL1        0.4202
     21 F         143.1441  144.1597  170.9089 F       1  UNL1       -0.1658
     22 F         144.5672  142.7467  170.2174 F       1  UNL1       -0.1658
     23 F         141.5749  142.9510  170.1495 F       1  UNL1       -0.1658
     24 C         142.2757  138.3759  160.2678 C.3     1  UNL1        0.0082
     25 C         142.6309  138.0253  158.8533 C.3     1  UNL1        0.0005
     26 C         142.7223  137.7057  160.8336 C.3     1  UNL1        0.0005
     27 N         138.3609  141.9724  160.6934 N.3     1  UNL1       -0.2975
     28 H         138.5454  142.6704  159.9729 H       1  UNL1        0.1232
     29 C         138.8600  144.0961  162.1044 C.3     1  UNL1        0.1591
     30 C         138.8109  144.8272  163.4132 C.3     1  UNL1        0.1729
     31 O         138.2136  144.1659  164.6198 O.3     1  UNL1       -0.3511
     32 C         137.6654  142.7735  164.5177 C.3     1  UNL1        0.1437
     33 C         137.7145  142.0423  163.2089 C.3     1  UNL1        0.0503
     34 C         138.3118  142.7036  162.0023 C.3     1  UNL1        0.0865
     35 C         140.9410  144.7214  160.6802 C.3     1  UNL1        0.1742
     36 O         139.4573  144.7574  160.8978 O.3     1  UNL1       -0.3496
@<TRIPOS>BOND
     1    35    36    1
     2    29    36    1
     3    29    30    1
     4    30    31    1
     5    31    32    1
     6    32    33    1
     7    33    34    1
     8    34    27    1
     9     1    27    1
    10     1     2    1
    11     2     3    1
    12     3     4    1
    13     4     6    1
    14     6     7    2
    15     6     8   am
    16     8     9    1
    17     9    10    1
    18    10    11    1
    19    11    14    1
    20    14    15   ar
    21    15    16   ar
    22    16    20    1
    23    20    21    1
    24    20    22    1
    25    20    23    1
    26    16    17   ar
    27    17    18   ar
    28    18    19   ar
    29    11    12    1
    30    12    13    1
    31     4    24    1
    32    24    25    1
    33    24    26    1
    34     4     5    1
    35    34    29    1
    36     5     1    1
    37    13     8    1
    38    19    14   ar
    39    27    28    1
@<TRIPOS>MOLECULE
*****
 36 39 0 0 0
SMALL
GASTEIGER

@<TRIPOS>ATOM
      1 C         140.0679  141.9322  164.8154 C.3     1  UNL1        0.0545
      2 C         141.0858  141.9701  165.9165 C.3     1  UNL1        0.0162
      3 C         142.2126  142.8568  165.4758 C.3     1  UNL1        0.0100
      4 C         141.8910  143.3668  164.1023 C.3     1  UNL1        0.0704
      5 C         140.5656  142.7954  163.6942 C.3     1  UNL1        0.0243
      6 C         141.8445  144.0250  162.7552 C.2     1  UNL1        0.2248
      7 O         141.1652  145.3524  162.5921 O.2     1  UNL1       -0.2749
      8 N         142.4773  143.3559  161.5712 N.am    1  UNL1       -0.2760
      9 C         142.4309  144.0140  160.2241 C.3     1  UNL1        0.1149
     10 C         143.0637  143.3448  159.0402 C.3     1  UNL1        0.1137
     11 N         143.7430  142.0175  159.2034 N.pl3   1  UNL1       -0.2883
     12 C         143.7895  141.3593  160.5504 C.3     1  UNL1        0.1137
     13 C         143.1567  142.0285  161.7344 C.3     1  UNL1        0.1149
     14 C         144.3758  141.3482  158.0194 C.ar    1  UNL1        0.1535
     15 C         145.4397  142.0589  157.2362 C.ar    1  UNL1        0.0416
     16 C         146.0725  141.3897  156.0523 C.ar    1  UNL1        0.0951
     17 C         145.6416  140.0099  155.6516 C.ar    1  UNL1        0.1261
     18 N         144.5778  139.2994  156.4347 N.ar    1  UNL1       -0.1453
     19 N         143.9449  139.9686  157.6187 N.ar    1  UNL1       -0.1329
     20 C         147.1364  142.1002  155.2691 C.3     1  UNL1        0.4202
     21 F         148.2002  142.8107  154.4859 F       1  UNL1       -0.1658
     22 F         147.3458  143.0476  156.4130 F       1  UNL1       -0.1658
     23 F         146.9269  141.1528  154.1252 F       1  UNL1       -0.1658
     24 C         143.2067  144.0758  164.2288 C.3     1  UNL1        0.0082
     25 C         144.3979  143.3532  164.7847 C.3     1  UNL1        0.0005
     26 C         143.5159  144.9861  164.0180 C.3     1  UNL1        0.0005
     27 N         138.7787  141.1656  164.8326 N.3     1  UNL1       -0.2975
     28 H         138.7003  140.7419  165.7571 H       1  UNL1        0.1232
     29 C         137.8200  140.3682  162.5533 C.3     1  UNL1        0.1591
     30 C         137.5846  139.2743  161.5543 C.3     1  UNL1        0.1729
     31 O         138.0723  137.8840  161.8356 O.3     1  UNL1       -0.3511
     32 C         138.7954  137.5875  163.1158 C.3     1  UNL1        0.1437
     33 C         139.0309  138.6814  164.1148 C.3     1  UNL1        0.0503
     34 C         138.5432  140.0717  163.8335 C.3     1  UNL1        0.0865
     35 C         138.0634  142.6255  161.2903 C.3     1  UNL1        0.1742
     36 O         137.3323  141.7585  162.2720 O.3     1  UNL1       -0.3496
@<TRIPOS>BOND
     1    35    36    1
     2    29    36    1
     3    29    30    1
     4    30    31    1
     5    31    32    1
     6    32    33    1
     7    33    34    1
     8    34    27    1
     9     1    27    1
    10     1     2    1
    11     2     3    1
    12     3     4    1
    13     4     6    1
    14     6     7    2
    15     6     8   am
    16     8     9    1
    17     9    10    1
    18    10    11    1
    19    11    14    1
    20    14    15   ar
    21    15    16   ar
    22    16    20    1
    23    20    21    1
    24    20    22    1
    25    20    23    1
    26    16    17   ar
    27    17    18   ar
    28    18    19   ar
    29    11    12    1
    30    12    13    1
    31     4    24    1
    32    24    25    1
    33    24    26    1
    34     4     5    1
    35    34    29    1
    36     5     1    1
    37    13     8    1
    38    19    14   ar
    39    27    28    1
@<TRIPOS>MOLECULE
*****
 36 39 0 0 0
SMALL
GASTEIGER

@<TRIPOS>ATOM
      1 C         141.5393  141.8123  160.0422 C.3     1  UNL1        0.0545
      2 C         142.6573  141.3986  159.1318 C.3     1  UNL1        0.0162
      3 C         143.0325  139.9863  159.4704 C.3     1  UNL1        0.0100
      4 C         142.1463  139.5271  160.5901 C.3     1  UNL1        0.0704
      5 C         141.2234  140.6556  160.9435 C.3     1  UNL1        0.0243
      6 C         141.4213  138.8003  161.6838 C.2     1  UNL1        0.2248
      7 O         140.5105  137.6565  161.3487 O.2     1  UNL1       -0.2749
      8 N         141.6070  139.2172  163.1127 N.am    1  UNL1       -0.2760
      9 C         140.8821  138.4905  164.2064 C.3     1  UNL1        0.1149
     10 C         141.0678  138.9075  165.6353 C.3     1  UNL1        0.1137
     11 N         141.9786  140.0513  165.9704 N.pl3   1  UNL1       -0.2883
     12 C         142.7035  140.7780  164.8766 C.3     1  UNL1        0.1137
     13 C         142.5177  140.3610  163.4478 C.3     1  UNL1        0.1149
     14 C         142.1644  140.4683  167.3992 C.ar    1  UNL1        0.1535
     15 C         141.6212  141.7838  167.8732 C.ar    1  UNL1        0.0416
     16 C         141.8070  142.2008  169.3020 C.ar    1  UNL1        0.0951
     17 C         142.5359  141.3024  170.2568 C.ar    1  UNL1        0.1261
     18 N         143.0790  139.9870  169.7829 N.ar    1  UNL1       -0.1453
     19 N         142.8932  139.5700  168.3540 N.ar    1  UNL1       -0.1329
     20 C         141.2639  143.5163  169.7761 C.3     1  UNL1        0.4202
     21 F         140.7209  144.8317  170.2501 F       1  UNL1       -0.1658
     22 F         142.5409  143.7757  170.5191 F       1  UNL1       -0.1658
     23 F         139.9870  143.2568  169.0331 F       1  UNL1       -0.1658
     24 C         142.9175  138.2467  160.4654 C.3     1  UNL1        0.0082
     25 C         144.0119  137.9321  161.4418 C.3     1  UNL1        0.0005
     26 C         142.8828  137.4855  159.8424 C.3     1  UNL1        0.0005
     27 N         140.8569  143.1481  160.0499 N.3     1  UNL1       -0.2975
     28 H         141.4551  143.7873  159.5265 H       1  UNL1        0.1232
     29 C         141.6349  144.4625  162.1516 C.3     1  UNL1        0.1591
     30 C         141.3176  145.1350  163.4542 C.3     1  UNL1        0.1729
     31 O         139.9050  145.1657  163.9579 O.3     1  UNL1       -0.3511
     32 C         138.8098  144.5239  163.1589 C.3     1  UNL1        0.1437
     33 C         139.1271  143.8514  161.8563 C.3     1  UNL1        0.0503
     34 C         140.5396  143.8206  161.3526 C.3     1  UNL1        0.0865
     35 C         144.1341  143.8427  162.4977 C.3     1  UNL1        0.1742
     36 O         143.0475  144.4318  161.6479 O.3     1  UNL1       -0.3496
@<TRIPOS>BOND
     1    35    36    1
     2    29    36    1
     3    29    30    1
     4    30    31    1
     5    31    32    1
     6    32    33    1
     7    33    34    1
     8    34    27    1
     9     1    27    1
    10     1     2    1
    11     2     3    1
    12     3     4    1
    13     4     6    1
    14     6     7    2
    15     6     8   am
    16     8     9    1
    17     9    10    1
    18    10    11    1
    19    11    14    1
    20    14    15   ar
    21    15    16   ar
    22    16    20    1
    23    20    21    1
    24    20    22    1
    25    20    23    1
    26    16    17   ar
    27    17    18   ar
    28    18    19   ar
    29    11    12    1
    30    12    13    1
    31     4    24    1
    32    24    25    1
    33    24    26    1
    34     4     5    1
    35    34    29    1
    36     5     1    1
    37    13     8    1
    38    19    14   ar
    39    27    28    1
@<TRIPOS>MOLECULE
*****
 36 39 0 0 0
SMALL
GASTEIGER

@<TRIPOS>ATOM
      1 C         138.4579  142.4286  164.3175 C.3     1  UNL1        0.0545
      2 C         137.9657  143.8206  164.0528 C.3     1  UNL1        0.0162
      3 C         139.1529  144.6781  163.7280 C.3     1  UNL1        0.0100
      4 C         140.3787  143.8160  163.7920 C.3     1  UNL1        0.0704
      5 C         139.9492  142.4258  164.1563 C.3     1  UNL1        0.0243
      6 C         141.7545  143.2184  163.7792 C.2     1  UNL1        0.2248
      7 O         142.5443  143.1271  165.0511 O.2     1  UNL1       -0.2749
      8 N         142.3404  142.7122  162.4945 N.am    1  UNL1       -0.2760
      9 C         143.7161  142.1146  162.4817 C.3     1  UNL1        0.1149
     10 C         144.3020  141.6083  161.1969 C.3     1  UNL1        0.1137
     11 N         143.5121  141.6997  159.9251 N.pl3   1  UNL1       -0.2883
     12 C         142.1364  142.2974  159.9379 C.3     1  UNL1        0.1137
     13 C         141.5505  142.8036  161.2226 C.3     1  UNL1        0.1149
     14 C         144.0980  141.1935  158.6403 C.ar    1  UNL1        0.1535
     15 C         145.1290  142.0062  157.9147 C.ar    1  UNL1        0.0416
     16 C         145.7149  141.5000  156.6299 C.ar    1  UNL1        0.0951
     17 C         145.2697  140.1812  156.0709 C.ar    1  UNL1        0.1261
     18 N         144.2387  139.3685  156.7965 N.ar    1  UNL1       -0.1453
     19 N         143.6529  139.8748  158.0813 N.ar    1  UNL1       -0.1329
     20 C         146.7459  142.3126  155.9042 C.3     1  UNL1        0.4202
     21 F         147.7769  143.1252  155.1785 F       1  UNL1       -0.1658
     22 F         147.0275  143.0791  157.1625 F       1  UNL1       -0.1658
     23 F         146.4643  141.5462  154.6460 F       1  UNL1       -0.1658
     24 C         141.0958  145.0813  163.4250 C.3     1  UNL1        0.0082
     25 C         140.5608  145.9563  162.3304 C.3     1  UNL1        0.0005
     26 C         141.9097  145.5261  163.7543 C.3     1  UNL1        0.0005
     27 N         137.6080  141.2469  164.6797 N.3     1  UNL1       -0.2975
     28 H         137.4767  141.2775  165.6908 H       1  UNL1        0.1232
     29 C         138.1241  139.4119  162.9143 C.3     1  UNL1        0.1591
     30 C         138.5864  138.0248  162.5796 C.3     1  UNL1        0.1729
     31 O         138.9949  137.0855  163.6754 O.3     1  UNL1       -0.3511
     32 C         138.9411  137.5332  165.1059 C.3     1  UNL1        0.1437
     33 C         138.4788  138.9204  165.4407 C.3     1  UNL1        0.0503
     34 C         138.0703  139.8597  164.3449 C.3     1  UNL1        0.0865
     35 C         137.4135  139.8197  160.4488 C.3     1  UNL1        0.1742
     36 O         137.7156  140.3513  161.8185 O.3     1  UNL1       -0.3496
@<TRIPOS>BOND
     1    35    36    1
     2    29    36    1
     3    29    30    1
     4    30    31    1
     5    31    32    1
     6    32    33    1
     7    33    34    1
     8    34    27    1
     9     1    27    1
    10     1     2    1
    11     2     3    1
    12     3     4    1
    13     4     6    1
    14     6     7    2
    15     6     8   am
    16     8     9    1
    17     9    10    1
    18    10    11    1
    19    11    14    1
    20    14    15   ar
    21    15    16   ar
    22    16    20    1
    23    20    21    1
    24    20    22    1
    25    20    23    1
    26    16    17   ar
    27    17    18   ar
    28    18    19   ar
    29    11    12    1
    30    12    13    1
    31     4    24    1
    32    24    25    1
    33    24    26    1
    34     4     5    1
    35    34    29    1
    36     5     1    1
    37    13     8    1
    38    19    14   ar
    39    27    28    1
@<TRIPOS>MOLECULE
*****
 36 39 0 0 0
SMALL
GASTEIGER

@<TRIPOS>ATOM
      1 C         142.6201  142.4861  159.6225 C.3     1  UNL1        0.0545
      2 C         143.7213  141.8948  158.7931 C.3     1  UNL1        0.0162
      3 C         143.6036  140.4011  158.8633 C.3     1  UNL1        0.0100
      4 C         142.4297  140.0691  159.7361 C.3     1  UNL1        0.0704
      5 C         141.8219  141.3577  160.2053 C.3     1  UNL1        0.0243
      6 C         141.3350  139.4404  160.5462 C.2     1  UNL1        0.2248
      7 O         140.1784  138.7781  159.8581 O.2     1  UNL1       -0.2749
      8 N         141.3970  139.4739  162.0446 N.am    1  UNL1       -0.2760
      9 C         140.3023  138.8452  162.8548 C.3     1  UNL1        0.1149
     10 C         140.3643  138.8788  164.3532 C.3     1  UNL1        0.1137
     11 N         141.5210  139.5410  165.0413 N.pl3   1  UNL1       -0.2883
     12 C         142.6156  140.1698  164.2311 C.3     1  UNL1        0.1137
     13 C         142.5536  140.1362  162.7327 C.3     1  UNL1        0.1149
     14 C         141.5830  139.5746  166.5396 C.ar    1  UNL1        0.1535
     15 C         140.3711  139.9670  167.3318 C.ar    1  UNL1        0.0416
     16 C         140.4331  140.0005  168.8301 C.ar    1  UNL1        0.0951
     17 C         141.7069  139.6417  169.5363 C.ar    1  UNL1        0.1261
     18 N         142.9187  139.2494  168.7442 N.ar    1  UNL1       -0.1453
     19 N         142.8567  139.2158  167.2458 N.ar    1  UNL1       -0.1329
     20 C         139.2213  140.3929  169.6223 C.3     1  UNL1        0.4202
     21 F         138.0095  140.7853  170.4145 F       1  UNL1       -0.1658
     22 F         140.0910  141.1634  170.5710 F       1  UNL1       -0.1658
     23 F         138.3516  139.6224  168.6737 F       1  UNL1       -0.1658
     24 C         142.8086  138.6492  159.4363 C.3     1  UNL1        0.0082
     25 C         142.7550  138.1402  158.0262 C.3     1  UNL1        0.0005
     26 C         143.1139  137.8923  159.9863 C.3     1  UNL1        0.0005
     27 N         142.3625  143.9488  159.8322 N.3     1  UNL1       -0.2975
     28 H         143.2726  144.4093  159.8450 H       1  UNL1        0.1232
     29 C         142.3826  144.7534  162.3025 C.3     1  UNL1        0.1591
     30 C         141.6453  145.2175  163.5236 C.3     1  UNL1        0.1729
     31 O         140.1507  145.3411  163.4955 O.3     1  UNL1       -0.3511
     32 C         139.3933  145.0006  162.2463 C.3     1  UNL1        0.1437
     33 C         140.1306  144.5366  161.0253 C.3     1  UNL1        0.0503
     34 C         141.6252  144.4130  161.0534 C.3     1  UNL1        0.0865
     35 C         144.5150  143.3265  162.7107 C.3     1  UNL1        0.1742
     36 O         143.8772  144.6298  162.3306 O.3     1  UNL1       -0.3496
@<TRIPOS>BOND
     1    35    36    1
     2    29    36    1
     3    29    30    1
     4    30    31    1
     5    31    32    1
     6    32    33    1
     7    33    34    1
     8    34    27    1
     9     1    27    1
    10     1     2    1
    11     2     3    1
    12     3     4    1
    13     4     6    1
    14     6     7    2
    15     6     8   am
    16     8     9    1
    17     9    10    1
    18    10    11    1
    19    11    14    1
    20    14    15   ar
    21    15    16   ar
    22    16    20    1
    23    20    21    1
    24    20    22    1
    25    20    23    1
    26    16    17   ar
    27    17    18   ar
    28    18    19   ar
    29    11    12    1
    30    12    13    1
    31     4    24    1
    32    24    25    1
    33    24    26    1
    34     4     5    1
    35    34    29    1
    36     5     1    1
    37    13     8    1
    38    19    14   ar
    39    27    28    1
@<TRIPOS>MOLECULE
*****
 36 39 0 0 0
SMALL
GASTEIGER

@<TRIPOS>ATOM
      1 C         139.4507  141.9449  164.4322 C.3     1  UNL1        0.0545
      2 C         138.0708  141.4280  164.7130 C.3     1  UNL1        0.0162
      3 C         138.1255  139.9291  164.6991 C.3     1  UNL1        0.0100
      4 C         139.5392  139.5195  164.4097 C.3     1  UNL1        0.0704
      5 C         140.3582  140.7654  164.2447 C.3     1  UNL1        0.0243
      6 C         140.8385  138.8190  164.1432 C.2     1  UNL1        0.2248
      7 O         141.6256  138.2397  165.2811 O.2     1  UNL1       -0.2749
      8 N         141.3508  138.6977  162.7385 N.am    1  UNL1       -0.2760
      9 C         142.6500  137.9971  162.4719 C.3     1  UNL1        0.1149
     10 C         143.1622  137.8758  161.0673 C.3     1  UNL1        0.1137
     11 N         142.3752  138.4551  159.9293 N.pl3   1  UNL1       -0.2883
     12 C         141.0759  139.1556  160.1960 C.3     1  UNL1        0.1137
     13 C         140.5637  139.2769  161.6006 C.3     1  UNL1        0.1149
     14 C         142.8873  138.3338  158.5247 C.ar    1  UNL1        0.1535
     15 C         142.6204  137.0873  157.7341 C.ar    1  UNL1        0.0416
     16 C         143.1326  136.9660  156.3295 C.ar    1  UNL1        0.0951
     17 C         143.9117  138.0911  155.7155 C.ar    1  UNL1        0.1261
     18 N         144.1786  139.3376  156.5060 N.ar    1  UNL1       -0.1453
     19 N         143.6664  139.4589  157.9106 N.ar    1  UNL1       -0.1329
     20 C         142.8657  135.7195  155.5389 C.3     1  UNL1        0.4202
     21 F         142.5988  134.4731  154.7482 F       1  UNL1       -0.1658
     22 F         142.8081  134.9255  156.8101 F       1  UNL1       -0.1658
     23 F         142.9233  136.5136  154.2676 F       1  UNL1       -0.1658
     24 C         138.9919  138.1273  164.5190 C.3     1  UNL1        0.0082
     25 C         138.4749  137.6257  165.8347 C.3     1  UNL1        0.0005
     26 C         138.8750  137.3866  163.8815 C.3     1  UNL1        0.0005
     27 N         139.8524  143.3879  164.3527 N.3     1  UNL1       -0.2975
     28 H         138.9978  143.9236  164.2011 H       1  UNL1        0.1232
     29 C         140.3767  144.0865  161.9058 C.3     1  UNL1        0.1591
     30 C         141.3593  144.5352  160.8652 C.3     1  UNL1        0.1729
     31 O         142.8005  144.7340  161.2307 O.3     1  UNL1       -0.3511
     32 C         143.2589  144.4841  162.6369 C.3     1  UNL1        0.1437
     33 C         142.2763  144.0354  163.6775 C.3     1  UNL1        0.0503
     34 C         140.8351  143.8366  163.3120 C.3     1  UNL1        0.0865
     35 C         138.4982  142.6143  160.8793 C.3     1  UNL1        0.1742
     36 O         138.9355  143.8878  161.5403 O.3     1  UNL1       -0.3496
@<TRIPOS>BOND
     1    35    36    1
     2    29    36    1
     3    29    30    1
     4    30    31    1
     5    31    32    1
     6    32    33    1
     7    33    34    1
     8    34    27    1
     9     1    27    1
    10     1     2    1
    11     2     3    1
    12     3     4    1
    13     4     6    1
    14     6     7    2
    15     6     8   am
    16     8     9    1
    17     9    10    1
    18    10    11    1
    19    11    14    1
    20    14    15   ar
    21    15    16   ar
    22    16    20    1
    23    20    21    1
    24    20    22    1
    25    20    23    1
    26    16    17   ar
    27    17    18   ar
    28    18    19   ar
    29    11    12    1
    30    12    13    1
    31     4    24    1
    32    24    25    1
    33    24    26    1
    34     4     5    1
    35    34    29    1
    36     5     1    1
    37    13     8    1
    38    19    14   ar
    39    27    28    1
