@<TRIPOS>MOLECULE
*****
 23 25 0 0 0
SMALL
GASTEIGER

@<TRIPOS>ATOM
      1 C         140.1736  142.0522  166.6092 C.3     1  UNL1        0.1883
      2 C         140.0444  143.0116  165.4635 C.ar    1  UNL1        0.0195
      3 C         141.2625  143.6945  164.9159 C.ar    1  UNL1        0.0002
      4 C         141.1332  144.6539  163.7702 C.ar    1  UNL1        0.0135
      5 C         139.7858  144.9305  163.1719 C.ar    1  UNL1        0.0850
      6 CL        139.6566  145.8899  162.0261 Cl      1  UNL1       -0.0799
      7 C         138.5676  144.2476  163.7194 C.ar    1  UNL1        0.1504
      8 F         137.2202  144.5242  163.1211 F       1  UNL1       -0.2033
      9 C         138.6969  143.2882  164.8652 C.ar    1  UNL1        0.0297
     10 O         139.4187  140.7562  166.5911 O.3     1  UNL1       -0.4747
     11 F         138.4853  137.1608  162.9577 F       1  UNL1       -0.2041
     12 C         139.4291  137.8245  163.9162 C.ar    1  UNL1        0.1432
     13 C         140.8499  137.3544  164.0164 C.ar    1  UNL1        0.0298
     14 C         141.7937  138.0181  164.9749 C.ar    1  UNL1        0.0054
     15 C         141.3167  139.1521  165.8331 C.ar    1  UNL1        0.0371
     16 C         139.8958  139.6222  165.7328 C.ar    1  UNL1        0.1411
     17 C         138.9520  138.9585  164.7744 C.ar    1  UNL1        0.0665
     18 C         141.0579  142.3889  167.7732 C.3     1  UNL1        0.0510
     19 C         140.4511  142.7380  169.0998 C.3     1  UNL1        0.0354
     20 C         140.3678  143.9822  169.9335 C.3     1  UNL1        0.0700
     21 N         139.5929  143.2318  170.9759 N.3     1  UNL1       -0.2974
     22 C         139.6762  141.9877  170.1421 C.3     1  UNL1        0.0700
     23 H         138.6431  143.5759  171.1167 H       1  UNL1        0.1232
@<TRIPOS>BOND
     1    11    12    1
     2    12    13   ar
     3    13    14   ar
     4    14    15   ar
     5    15    16   ar
     6    16    10    1
     7    10     1    1
     8     1    18    1
     9    18    19    1
    10    19    20    1
    11    20    21    1
    12    21    22    1
    13     1     2    1
    14     2     3   ar
    15     3     4   ar
    16     4     5   ar
    17     5     6    1
    18     5     7   ar
    19     7     8    1
    20     7     9   ar
    21    16    17   ar
    22    17    12   ar
    23    22    19    1
    24     9     2   ar
    25    21    23    1
@<TRIPOS>MOLECULE
*****
 23 25 0 0 0
SMALL
GASTEIGER

@<TRIPOS>ATOM
      1 C         139.8671  141.5548  165.4272 C.3     1  UNL1        0.1883
      2 C         140.0809  141.5664  166.9119 C.ar    1  UNL1        0.0195
      3 C         140.0319  140.2830  167.6867 C.ar    1  UNL1        0.0002
      4 C         140.2457  140.2945  169.1714 C.ar    1  UNL1        0.0135
      5 C         140.5085  141.5895  169.8812 C.ar    1  UNL1        0.0850
      6 CL        140.7223  141.6011  171.3658 Cl      1  UNL1       -0.0799
      7 C         140.5575  142.8730  169.1063 C.ar    1  UNL1        0.1504
      8 F         140.8203  144.1680  169.8161 F       1  UNL1       -0.2033
      9 C         140.3437  142.8615  167.6217 C.ar    1  UNL1        0.0297
     10 O         141.0437  141.4704  164.5007 O.3     1  UNL1       -0.4747
     11 F         145.3245  144.0476  165.9264 F       1  UNL1       -0.2041
     12 C         144.1045  143.9336  165.0612 C.ar    1  UNL1        0.1432
     13 C         143.8049  144.9941  164.0436 C.ar    1  UNL1        0.0298
     14 C         142.5849  144.8801  163.1784 C.ar    1  UNL1        0.0054
     15 C         141.6645  143.7055  163.3307 C.ar    1  UNL1        0.0371
     16 C         141.9641  142.6450  164.3483 C.ar    1  UNL1        0.1411
     17 C         143.1841  142.7591  165.2136 C.ar    1  UNL1        0.0665
     18 C         138.4766  141.6276  164.8692 C.3     1  UNL1        0.0510
     19 C         138.0935  142.7531  163.9547 C.3     1  UNL1        0.0354
     20 C         137.8624  144.2255  164.1239 C.3     1  UNL1        0.0700
     21 N         137.5517  144.3449  162.6613 N.3     1  UNL1       -0.2974
     22 C         137.7828  142.8725  162.4920 C.3     1  UNL1        0.0700
     23 H         138.2059  144.9314  162.1432 H       1  UNL1        0.1232
@<TRIPOS>BOND
     1    11    12    1
     2    12    13   ar
     3    13    14   ar
     4    14    15   ar
     5    15    16   ar
     6    16    10    1
     7    10     1    1
     8     1    18    1
     9    18    19    1
    10    19    20    1
    11    20    21    1
    12    21    22    1
    13     1     2    1
    14     2     3   ar
    15     3     4   ar
    16     4     5   ar
    17     5     6    1
    18     5     7   ar
    19     7     8    1
    20     7     9   ar
    21    16    17   ar
    22    17    12   ar
    23    22    19    1
    24     9     2   ar
    25    21    23    1
@<TRIPOS>MOLECULE
*****
 23 25 0 0 0
SMALL
GASTEIGER

@<TRIPOS>ATOM
      1 C         140.6594  142.5026  167.3531 C.3     1  UNL1        0.1883
      2 C         140.4487  143.2506  166.0701 C.ar    1  UNL1        0.0195
      3 C         139.1910  144.0406  165.8604 C.ar    1  UNL1        0.0002
      4 C         138.9802  144.7886  164.5774 C.ar    1  UNL1        0.0135
      5 C         140.0271  144.7465  163.5041 C.ar    1  UNL1        0.0850
      6 CL        139.8163  145.4944  162.2210 Cl      1  UNL1       -0.0799
      7 C         141.2849  143.9564  163.7137 C.ar    1  UNL1        0.1504
      8 F         142.3318  143.9143  162.6403 F       1  UNL1       -0.2033
      9 C         141.4957  143.2085  164.9967 C.ar    1  UNL1        0.0297
     10 O         141.1545  141.0870  167.3234 O.3     1  UNL1       -0.4747
     11 F         136.8503  138.1770  167.4048 F       1  UNL1       -0.2041
     12 C         138.1524  138.5528  166.7619 C.ar    1  UNL1        0.1432
     13 C         138.6045  137.8492  165.5166 C.ar    1  UNL1        0.0298
     14 C         139.9066  138.2249  164.8737 C.ar    1  UNL1        0.0054
     15 C         140.7566  139.3042  165.4759 C.ar    1  UNL1        0.0371
     16 C         140.3045  140.0077  166.7211 C.ar    1  UNL1        0.1411
     17 C         139.0024  139.6320  167.3641 C.ar    1  UNL1        0.0665
     18 C         140.3751  143.1704  168.6659 C.3     1  UNL1        0.0510
     19 C         141.1253  142.7550  169.8967 C.3     1  UNL1        0.0354
     20 C         140.7895  141.9667  171.1279 C.3     1  UNL1        0.0700
     21 N         142.1861  142.1674  171.6372 N.3     1  UNL1       -0.2974
     22 C         142.5218  142.9557  170.4059 C.3     1  UNL1        0.0700
     23 H         142.7206  141.3046  171.7379 H       1  UNL1        0.1232
@<TRIPOS>BOND
     1    11    12    1
     2    12    13   ar
     3    13    14   ar
     4    14    15   ar
     5    15    16   ar
     6    16    10    1
     7    10     1    1
     8     1    18    1
     9    18    19    1
    10    19    20    1
    11    20    21    1
    12    21    22    1
    13     1     2    1
    14     2     3   ar
    15     3     4   ar
    16     4     5   ar
    17     5     6    1
    18     5     7   ar
    19     7     8    1
    20     7     9   ar
    21    16    17   ar
    22    17    12   ar
    23    22    19    1
    24     9     2   ar
    25    21    23    1
@<TRIPOS>MOLECULE
*****
 23 25 0 0 0
SMALL
GASTEIGER

@<TRIPOS>ATOM
      1 C         140.8001  142.2054  167.3238 C.3     1  UNL1        0.1883
      2 C         140.6193  143.0625  166.1062 C.ar    1  UNL1        0.0195
      3 C         139.3689  143.8740  165.9392 C.ar    1  UNL1        0.0002
      4 C         139.1881  144.7311  164.7216 C.ar    1  UNL1        0.0135
      5 C         140.2577  144.7768  163.6710 C.ar    1  UNL1        0.0850
      6 CL        140.0769  145.6340  162.4533 Cl      1  UNL1       -0.0799
      7 C         141.5082  143.9653  163.8380 C.ar    1  UNL1        0.1504
      8 F         142.5779  144.0111  162.7874 F       1  UNL1       -0.2033
      9 C         141.6890  143.1082  165.0556 C.ar    1  UNL1        0.0297
     10 O         141.3461  140.8149  167.1879 O.3     1  UNL1       -0.4747
     11 F         141.0622  136.7942  163.9087 F       1  UNL1       -0.2041
     12 C         140.3964  137.7457  164.8581 C.ar    1  UNL1        0.1432
     13 C         138.9229  137.6385  165.1172 C.ar    1  UNL1        0.0298
     14 C         138.2571  138.5900  166.0666 C.ar    1  UNL1        0.0054
     15 C         139.0648  139.6488  166.7568 C.ar    1  UNL1        0.0371
     16 C         140.5383  139.7561  166.4976 C.ar    1  UNL1        0.1411
     17 C         141.2041  138.8045  165.5483 C.ar    1  UNL1        0.0665
     18 C         140.4349  142.7387  168.6775 C.3     1  UNL1        0.0510
     19 C         140.5397  141.8551  169.8850 C.3     1  UNL1        0.0354
     20 C         141.3893  141.8448  171.1212 C.3     1  UNL1        0.0700
     21 N         140.6880  140.6056  171.5928 N.3     1  UNL1       -0.2974
     22 C         139.8384  140.6159  170.3567 C.3     1  UNL1        0.0700
     23 H         140.1640  140.7279  172.4593 H       1  UNL1        0.1232
@<TRIPOS>BOND
     1    11    12    1
     2    12    13   ar
     3    13    14   ar
     4    14    15   ar
     5    15    16   ar
     6    16    10    1
     7    10     1    1
     8     1    18    1
     9    18    19    1
    10    19    20    1
    11    20    21    1
    12    21    22    1
    13     1     2    1
    14     2     3   ar
    15     3     4   ar
    16     4     5   ar
    17     5     6    1
    18     5     7   ar
    19     7     8    1
    20     7     9   ar
    21    16    17   ar
    22    17    12   ar
    23    22    19    1
    24     9     2   ar
    25    21    23    1
@<TRIPOS>MOLECULE
*****
 23 25 0 0 0
SMALL
GASTEIGER

@<TRIPOS>ATOM
      1 C         141.8492  140.8891  164.5356 C.3     1  UNL1        0.1883
      2 C         140.7109  140.1570  165.1825 C.ar    1  UNL1        0.0195
      3 C         139.9257  139.1481  164.3981 C.ar    1  UNL1        0.0002
      4 C         138.7874  138.4160  165.0449 C.ar    1  UNL1        0.0135
      5 C         138.4344  138.6929  166.4762 C.ar    1  UNL1        0.0850
      6 CL        137.2962  137.9608  167.1231 Cl      1  UNL1       -0.0799
      7 C         139.2197  139.7019  167.2608 C.ar    1  UNL1        0.1504
      8 F         138.8666  139.9787  168.6921 F       1  UNL1       -0.2033
      9 C         140.3579  140.4339  166.6139 C.ar    1  UNL1        0.0297
     10 O         141.6026  142.1955  163.8410 O.3     1  UNL1       -0.4747
     11 F         138.3978  145.5019  166.2488 F       1  UNL1       -0.2041
     12 C         138.6597  144.5134  165.1514 C.ar    1  UNL1        0.1432
     13 C         137.5812  144.1897  164.1604 C.ar    1  UNL1        0.0298
     14 C         137.8432  143.2012  163.0630 C.ar    1  UNL1        0.0054
     15 C         139.1836  142.5365  162.9565 C.ar    1  UNL1        0.0371
     16 C         140.2621  142.8602  163.9475 C.ar    1  UNL1        0.1411
     17 C         140.0001  143.8487  165.0449 C.ar    1  UNL1        0.0665
     18 C         143.2341  140.3147  164.5834 C.3     1  UNL1        0.0510
     19 C         144.3387  140.9540  163.7954 C.3     1  UNL1        0.0354
     20 C         144.7527  140.9503  162.3537 C.3     1  UNL1        0.0700
     21 N         145.9010  141.8582  162.6810 N.3     1  UNL1       -0.2974
     22 C         145.4870  141.8619  164.1227 C.3     1  UNL1        0.0700
     23 H         145.8507  142.7721  162.2309 H       1  UNL1        0.1232
@<TRIPOS>BOND
     1    11    12    1
     2    12    13   ar
     3    13    14   ar
     4    14    15   ar
     5    15    16   ar
     6    16    10    1
     7    10     1    1
     8     1    18    1
     9    18    19    1
    10    19    20    1
    11    20    21    1
    12    21    22    1
    13     1     2    1
    14     2     3   ar
    15     3     4   ar
    16     4     5   ar
    17     5     6    1
    18     5     7   ar
    19     7     8    1
    20     7     9   ar
    21    16    17   ar
    22    17    12   ar
    23    22    19    1
    24     9     2   ar
    25    21    23    1
@<TRIPOS>MOLECULE
*****
 23 25 0 0 0
SMALL
GASTEIGER

@<TRIPOS>ATOM
      1 C         142.3905  141.8130  165.6427 C.3     1  UNL1        0.1883
      2 C         141.2272  142.4776  164.9681 C.ar    1  UNL1        0.0195
      3 C         140.9315  142.1892  163.5261 C.ar    1  UNL1        0.0002
      4 C         139.7682  142.8538  162.8515 C.ar    1  UNL1        0.0135
      5 C         138.9005  143.8067  163.6190 C.ar    1  UNL1        0.0850
      6 CL        137.7372  144.4713  162.9444 Cl      1  UNL1       -0.0799
      7 C         139.1961  144.0951  165.0611 C.ar    1  UNL1        0.1504
      8 F         138.3284  145.0480  165.8285 F       1  UNL1       -0.2033
      9 C         140.3594  143.4305  165.7356 C.ar    1  UNL1        0.0297
     10 O         142.1866  140.5378  166.4058 O.3     1  UNL1       -0.4747
     11 F         137.3065  138.8357  166.9427 F       1  UNL1       -0.2041
     12 C         138.6488  138.7439  166.2795 C.ar    1  UNL1        0.1432
     13 C         138.8933  137.7091  165.2215 C.ar    1  UNL1        0.0298
     14 C         140.2356  137.6172  164.5583 C.ar    1  UNL1        0.0054
     15 C         141.3333  138.5601  164.9530 C.ar    1  UNL1        0.0371
     16 C         141.0888  139.5949  166.0110 C.ar    1  UNL1        0.1411
     17 C         139.7465  139.6868  166.6742 C.ar    1  UNL1        0.0665
     18 C         143.7577  142.4236  165.5541 C.3     1  UNL1        0.0510
     19 C         144.5741  142.2572  164.3069 C.3     1  UNL1        0.0354
     20 C         144.6150  142.9323  162.9680 C.3     1  UNL1        0.0700
     21 N         145.7287  142.0218  162.5429 N.3     1  UNL1       -0.2974
     22 C         145.6878  141.3467  163.8818 C.3     1  UNL1        0.0700
     23 H         146.6067  142.5019  162.3453 H       1  UNL1        0.1232
@<TRIPOS>BOND
     1    11    12    1
     2    12    13   ar
     3    13    14   ar
     4    14    15   ar
     5    15    16   ar
     6    16    10    1
     7    10     1    1
     8     1    18    1
     9    18    19    1
    10    19    20    1
    11    20    21    1
    12    21    22    1
    13     1     2    1
    14     2     3   ar
    15     3     4   ar
    16     4     5   ar
    17     5     6    1
    18     5     7   ar
    19     7     8    1
    20     7     9   ar
    21    16    17   ar
    22    17    12   ar
    23    22    19    1
    24     9     2   ar
    25    21    23    1
@<TRIPOS>MOLECULE
*****
 23 25 0 0 0
SMALL
GASTEIGER

@<TRIPOS>ATOM
      1 C         140.2118  140.0245  167.6480 C.3     1  UNL1        0.1883
      2 C         139.5811  139.9770  166.2879 C.ar    1  UNL1        0.0195
      3 C         139.1178  141.2435  165.6313 C.ar    1  UNL1        0.0002
      4 C         138.4871  141.1960  164.2712 C.ar    1  UNL1        0.0135
      5 C         138.3197  139.8819  163.5676 C.ar    1  UNL1        0.0850
      6 CL        137.6890  139.8344  162.2075 Cl      1  UNL1       -0.0799
      7 C         138.7830  138.6152  164.2242 C.ar    1  UNL1        0.1504
      8 F         138.6155  137.3011  163.5207 F       1  UNL1       -0.2033
      9 C         139.4137  138.6628  165.5843 C.ar    1  UNL1        0.0297
     10 O         141.6949  139.8534  167.7934 O.3     1  UNL1       -0.4747
     11 F         144.1054  143.7369  165.3219 F       1  UNL1       -0.2041
     12 C         143.8201  142.2720  165.4731 C.ar    1  UNL1        0.1432
     13 C         144.4546  141.2841  164.5396 C.ar    1  UNL1        0.0298
     14 C         144.1692  139.8193  164.6908 C.ar    1  UNL1        0.0054
     15 C         143.2493  139.3424  165.7753 C.ar    1  UNL1        0.0371
     16 C         142.6148  140.3303  166.7088 C.ar    1  UNL1        0.1411
     17 C         142.9002  141.7951  166.5576 C.ar    1  UNL1        0.0665
     18 C         139.3594  140.2432  168.8628 C.3     1  UNL1        0.0510
     19 C         139.8896  141.0404  170.0175 C.3     1  UNL1        0.0354
     20 C         139.7853  142.4713  170.4553 C.3     1  UNL1        0.0700
     21 N         140.6394  142.1678  171.6504 N.3     1  UNL1       -0.2974
     22 C         140.7437  140.7369  171.2126 C.3     1  UNL1        0.0700
     23 H         140.1654  142.2963  172.5444 H       1  UNL1        0.1232
@<TRIPOS>BOND
     1    11    12    1
     2    12    13   ar
     3    13    14   ar
     4    14    15   ar
     5    15    16   ar
     6    16    10    1
     7    10     1    1
     8     1    18    1
     9    18    19    1
    10    19    20    1
    11    20    21    1
    12    21    22    1
    13     1     2    1
    14     2     3   ar
    15     3     4   ar
    16     4     5   ar
    17     5     6    1
    18     5     7   ar
    19     7     8    1
    20     7     9   ar
    21    16    17   ar
    22    17    12   ar
    23    22    19    1
    24     9     2   ar
    25    21    23    1
@<TRIPOS>MOLECULE
*****
 23 25 0 0 0
SMALL
GASTEIGER

@<TRIPOS>ATOM
      1 C         140.9632  142.3900  167.6796 C.3     1  UNL1        0.1883
      2 C         140.0095  142.2342  166.5324 C.ar    1  UNL1        0.0195
      3 C         139.4224  140.8891  166.2225 C.ar    1  UNL1        0.0002
      4 C         138.4687  140.7334  165.0752 C.ar    1  UNL1        0.0135
      5 C         138.1022  141.9226  164.2379 C.ar    1  UNL1        0.0850
      6 CL        137.1485  141.7668  163.0906 Cl      1  UNL1       -0.0799
      7 C         138.6893  143.2677  164.5477 C.ar    1  UNL1        0.1504
      8 F         138.3228  144.4570  163.7103 F       1  UNL1       -0.2033
      9 C         139.6430  143.4235  165.6950 C.ar    1  UNL1        0.0297
     10 O         142.4426  142.3747  167.4325 O.3     1  UNL1       -0.4747
     11 F         143.4973  137.4181  166.2838 F       1  UNL1       -0.2041
     12 C         143.5657  138.8753  165.9348 C.ar    1  UNL1        0.1432
     13 C         144.2297  139.3115  164.6626 C.ar    1  UNL1        0.0298
     14 C         144.2981  140.7687  164.3136 C.ar    1  UNL1        0.0054
     15 C         143.7024  141.7898  165.2368 C.ar    1  UNL1        0.0371
     16 C         143.0384  141.3536  166.5091 C.ar    1  UNL1        0.1411
     17 C         142.9700  139.8964  166.8581 C.ar    1  UNL1        0.0665
     18 C         140.4375  142.5610  169.0741 C.3     1  UNL1        0.0510
     19 C         140.1332  141.3560  169.9139 C.3     1  UNL1        0.0354
     20 C         140.8168  140.6551  171.0504 C.3     1  UNL1        0.0700
     21 N         139.7029  139.6518  171.1017 N.3     1  UNL1       -0.2974
     22 C         139.0193  140.3526  169.9652 C.3     1  UNL1        0.0700
     23 H         139.1747  139.6603  171.9742 H       1  UNL1        0.1232
@<TRIPOS>BOND
     1    11    12    1
     2    12    13   ar
     3    13    14   ar
     4    14    15   ar
     5    15    16   ar
     6    16    10    1
     7    10     1    1
     8     1    18    1
     9    18    19    1
    10    19    20    1
    11    20    21    1
    12    21    22    1
    13     1     2    1
    14     2     3   ar
    15     3     4   ar
    16     4     5   ar
    17     5     6    1
    18     5     7   ar
    19     7     8    1
    20     7     9   ar
    21    16    17   ar
    22    17    12   ar
    23    22    19    1
    24     9     2   ar
    25    21    23    1
@<TRIPOS>MOLECULE
*****
 23 25 0 0 0
SMALL
GASTEIGER

@<TRIPOS>ATOM
      1 C         143.4246  142.5224  166.4532 C.3     1  UNL1        0.1883
      2 C         142.4913  141.4204  166.0476 C.ar    1  UNL1        0.0195
      3 C         141.0573  141.7294  165.7344 C.ar    1  UNL1        0.0002
      4 C         140.1240  140.6274  165.3288 C.ar    1  UNL1        0.0135
      5 C         140.6246  139.2164  165.2364 C.ar    1  UNL1        0.0850
      6 CL        139.6913  138.1145  164.8308 Cl      1  UNL1       -0.0799
      7 C         142.0587  138.9074  165.5497 C.ar    1  UNL1        0.1504
      8 F         142.5593  137.4965  165.4573 F       1  UNL1       -0.2033
      9 C         142.9920  140.0094  165.9553 C.ar    1  UNL1        0.0297
     10 O         143.7158  142.7623  167.9050 O.3     1  UNL1       -0.4747
     11 F         139.4021  143.2340  170.7632 F       1  UNL1       -0.2041
     12 C         140.6310  142.4622  170.3837 C.ar    1  UNL1        0.1432
     13 C         140.9320  141.1545  171.0538 C.ar    1  UNL1        0.0298
     14 C         142.1610  140.3826  170.6743 C.ar    1  UNL1        0.0054
     15 C         143.0889  140.9186  169.6247 C.ar    1  UNL1        0.0371
     16 C         142.7879  142.2263  168.9546 C.ar    1  UNL1        0.1411
     17 C         141.5589  142.9981  169.3341 C.ar    1  UNL1        0.0665
     18 C         144.0668  143.3845  165.4070 C.3     1  UNL1        0.0510
     19 C         144.7155  142.7541  164.2105 C.3     1  UNL1        0.0354
     20 C         145.7347  141.6734  164.0028 C.3     1  UNL1        0.0700
     21 N         145.6330  141.8627  162.5183 N.3     1  UNL1       -0.2974
     22 C         144.6138  142.9434  162.7259 C.3     1  UNL1        0.0700
     23 H         145.2792  141.0473  162.0178 H       1  UNL1        0.1232
@<TRIPOS>BOND
     1    11    12    1
     2    12    13   ar
     3    13    14   ar
     4    14    15   ar
     5    15    16   ar
     6    16    10    1
     7    10     1    1
     8     1    18    1
     9    18    19    1
    10    19    20    1
    11    20    21    1
    12    21    22    1
    13     1     2    1
    14     2     3   ar
    15     3     4   ar
    16     4     5   ar
    17     5     6    1
    18     5     7   ar
    19     7     8    1
    20     7     9   ar
    21    16    17   ar
    22    17    12   ar
    23    22    19    1
    24     9     2   ar
    25    21    23    1
