@<TRIPOS>MOLECULE
*****
 24 26 0 0 0
SMALL
GASTEIGER

@<TRIPOS>ATOM
      1 N         140.5994  141.1479  168.7750 N.am    1  UNL1       -0.2752
      2 C         141.6365  141.5550  167.7706 C.3     1  UNL1        0.1206
      3 C         141.5697  141.0278  166.3679 C.3     1  UNL1        0.1141
      4 C         141.5030  140.5005  164.9652 C.3     1  UNL1        0.0463
      5 C         142.5400  140.9076  163.9609 C.3     1  UNL1        0.0746
      6 N         143.6438  141.8419  164.3592 N.3     1  UNL1       -0.2722
      7 C         143.7106  142.3692  165.7618 C.3     1  UNL1        0.0746
      8 C         142.6735  141.9621  166.7662 C.3     1  UNL1        0.0463
      9 O         140.4659  140.0934  165.9696 O.3     1  UNL1       -0.3501
     10 C         139.4289  139.6863  166.9741 C.3     1  UNL1        0.1909
     11 C         138.3251  138.7520  166.5758 C.3     1  UNL1        0.0420
     12 C         139.4956  140.2136  168.3767 C.2     1  UNL1        0.2529
     13 O         138.4586  139.8065  169.3812 O.2     1  UNL1       -0.2722
     14 C         139.8637  142.8821  170.5642 C.3     1  UNL1        0.0233
     15 C         140.6661  141.6752  170.1777 C.3     1  UNL1        0.0936
     16 C         144.6809  142.2490  163.3547 C.3     1  UNL1        0.0768
     17 C         144.5091  143.5163  162.5709 C.3     1  UNL1        0.0437
     18 C         143.1552  144.1527  162.4612 C.ar    1  UNL1       -0.0206
     19 C         142.3024  143.8980  161.2538 C.ar    1  UNL1       -0.0019
     20 C         140.9485  144.5344  161.1442 C.ar    1  UNL1        0.0293
     21 C         140.4474  145.4254  162.2419 C.ar    1  UNL1        0.1401
     22 F         139.0935  146.0617  162.1322 F       1  UNL1       -0.2042
     23 C         141.3002  145.6800  163.4493 C.ar    1  UNL1        0.0293
     24 C         142.6541  145.0437  163.5589 C.ar    1  UNL1       -0.0019
@<TRIPOS>BOND
     1    14    15    1
     2    15     1    1
     3     1     2    1
     4     2     3    1
     5     3     4    1
     6     4     5    1
     7     5     6    1
     8     6    16    1
     9    16    17    1
    10    17    18    1
    11    18    19   ar
    12    19    20   ar
    13    20    21   ar
    14    21    22    1
    15    21    23   ar
    16    23    24   ar
    17     6     7    1
    18     7     8    1
    19     3     9    1
    20     9    10    1
    21    10    11    1
    22    10    12    1
    23    12    13    2
    24    12     1   am
    25     8     3    1
    26    24    18   ar
@<TRIPOS>MOLECULE
*****
 24 26 0 0 0
SMALL
GASTEIGER

@<TRIPOS>ATOM
      1 N         139.4699  139.8076  167.1411 N.am    1  UNL1       -0.2752
      2 C         140.4891  140.2035  166.1143 C.3     1  UNL1        0.1206
      3 C         141.6103  141.1273  166.4878 C.3     1  UNL1        0.1141
      4 C         142.7315  142.0510  166.8614 C.3     1  UNL1        0.0463
      5 C         143.7507  142.4470  165.8346 C.3     1  UNL1        0.0746
      6 N         143.6487  141.9192  164.4342 N.3     1  UNL1       -0.2722
      7 C         142.5275  140.9955  164.0606 C.3     1  UNL1        0.0746
      8 C         141.5083  140.5995  165.0875 C.3     1  UNL1        0.0463
      9 O         141.7124  141.6551  167.8882 O.3     1  UNL1       -0.3501
     10 C         140.6931  141.2591  168.9151 C.3     1  UNL1        0.1909
     11 C         140.7951  141.7869  170.3154 C.3     1  UNL1        0.0420
     12 C         139.5719  140.3353  168.5415 C.2     1  UNL1        0.2529
     13 O         138.5526  139.9393  169.5684 O.2     1  UNL1       -0.2722
     14 C         138.5130  137.9296  165.6220 C.3     1  UNL1        0.0233
     15 C         138.3486  138.8838  166.7676 C.3     1  UNL1        0.0936
     16 C         144.6680  142.3152  163.4073 C.3     1  UNL1        0.0768
     17 C         144.4986  143.5900  162.6352 C.3     1  UNL1        0.0437
     18 C         143.1380  144.2049  162.4919 C.ar    1  UNL1       -0.0206
     19 C         142.6049  145.1053  163.5667 C.ar    1  UNL1       -0.0019
     20 C         141.2443  145.7203  163.4234 C.ar    1  UNL1        0.0293
     21 C         140.4168  145.4348  162.2053 C.ar    1  UNL1        0.1401
     22 F         139.0561  146.0498  162.0621 F       1  UNL1       -0.2042
     23 C         140.9498  144.5344  161.1306 C.ar    1  UNL1        0.0293
     24 C         142.3104  143.9195  161.2739 C.ar    1  UNL1       -0.0019
@<TRIPOS>BOND
     1    14    15    1
     2    15     1    1
     3     1     2    1
     4     2     3    1
     5     3     4    1
     6     4     5    1
     7     5     6    1
     8     6    16    1
     9    16    17    1
    10    17    18    1
    11    18    19   ar
    12    19    20   ar
    13    20    21   ar
    14    21    22    1
    15    21    23   ar
    16    23    24   ar
    17     6     7    1
    18     7     8    1
    19     3     9    1
    20     9    10    1
    21    10    11    1
    22    10    12    1
    23    12    13    2
    24    12     1   am
    25     8     3    1
    26    24    18   ar
@<TRIPOS>MOLECULE
*****
 24 26 0 0 0
SMALL
GASTEIGER

@<TRIPOS>ATOM
      1 N         138.5873  141.0118  162.3066 N.am    1  UNL1       -0.2752
      2 C         139.4759  140.3730  163.3324 C.3     1  UNL1        0.1206
      3 C         140.3704  141.2240  164.1843 C.3     1  UNL1        0.1141
      4 C         141.2648  142.0750  165.0362 C.3     1  UNL1        0.0463
      5 C         142.1533  141.4362  166.0620 C.3     1  UNL1        0.0746
      6 N         142.1474  139.9464  166.2360 N.3     1  UNL1       -0.2722
      7 C         141.2530  139.0953  165.3841 C.3     1  UNL1        0.0746
      8 C         140.3645  139.7341  164.3583 C.3     1  UNL1        0.0463
      9 O         140.3763  142.7139  164.0103 O.3     1  UNL1       -0.3501
     10 C         139.4877  143.3527  162.9844 C.3     1  UNL1        0.1909
     11 C         139.4936  144.8426  162.8104 C.3     1  UNL1        0.0420
     12 C         138.5932  142.5016  162.1326 C.2     1  UNL1        0.2529
     13 O         137.7046  143.1405  161.1067 O.2     1  UNL1       -0.2722
     14 C         137.6912  138.6704  161.6246 C.3     1  UNL1        0.0233
     15 C         137.6928  140.1607  161.4547 C.3     1  UNL1        0.0936
     16 C         143.0360  139.3075  167.2619 C.3     1  UNL1        0.0768
     17 C         142.5684  139.1749  168.6809 C.3     1  UNL1        0.0437
     18 C         141.7221  140.2502  169.2953 C.ar    1  UNL1       -0.0206
     19 C         140.2321  140.0883  169.3574 C.ar    1  UNL1       -0.0019
     20 C         139.3859  141.1635  169.9718 C.ar    1  UNL1        0.0293
     21 C         140.0295  142.4007  170.5242 C.ar    1  UNL1        0.1401
     22 F         139.1831  143.4760  171.1386 F       1  UNL1       -0.2042
     23 C         141.5194  142.5626  170.4622 C.ar    1  UNL1        0.0293
     24 C         142.3657  141.4873  169.8478 C.ar    1  UNL1       -0.0019
@<TRIPOS>BOND
     1    14    15    1
     2    15     1    1
     3     1     2    1
     4     2     3    1
     5     3     4    1
     6     4     5    1
     7     5     6    1
     8     6    16    1
     9    16    17    1
    10    17    18    1
    11    18    19   ar
    12    19    20   ar
    13    20    21   ar
    14    21    22    1
    15    21    23   ar
    16    23    24   ar
    17     6     7    1
    18     7     8    1
    19     3     9    1
    20     9    10    1
    21    10    11    1
    22    10    12    1
    23    12    13    2
    24    12     1   am
    25     8     3    1
    26    24    18   ar
@<TRIPOS>MOLECULE
*****
 24 26 0 0 0
SMALL
GASTEIGER

@<TRIPOS>ATOM
      1 N         140.8532  139.9899  168.2491 N.am    1  UNL1       -0.2752
      2 C         139.9799  140.2295  167.0534 C.3     1  UNL1        0.1206
      3 C         140.4325  139.7872  165.6933 C.3     1  UNL1        0.1141
      4 C         140.8851  139.3449  164.3334 C.3     1  UNL1        0.0463
      5 C         140.0119  139.5845  163.1377 C.3     1  UNL1        0.0746
      6 N         138.6859  140.2664  163.3018 N.3     1  UNL1       -0.2722
      7 C         138.2333  140.7087  164.6617 C.3     1  UNL1        0.0746
      8 C         139.1066  140.4691  165.8575 C.3     1  UNL1        0.0463
      9 O         141.7584  139.1052  165.5292 O.3     1  UNL1       -0.3501
     10 C         142.6317  138.8656  166.7251 C.3     1  UNL1        0.1909
     11 C         143.9576  138.1837  166.5609 C.3     1  UNL1        0.0420
     12 C         142.1791  139.3079  168.0850 C.2     1  UNL1        0.2529
     13 O         143.0524  139.0683  169.2809 O.2     1  UNL1       -0.2722
     14 C         138.9407  140.4223  169.9537 C.3     1  UNL1        0.0233
     15 C         140.4006  140.4322  169.6092 C.3     1  UNL1        0.0936
     16 C         137.8127  140.5060  162.1059 C.3     1  UNL1        0.0768
     17 C         137.8471  141.8321  161.4058 C.3     1  UNL1        0.0437
     18 C         138.7899  142.9019  161.8714 C.ar    1  UNL1       -0.0206
     19 C         140.2176  142.8953  161.4117 C.ar    1  UNL1       -0.0019
     20 C         141.1604  143.9651  161.8773 C.ar    1  UNL1        0.0293
     21 C         140.6753  145.0414  162.8026 C.ar    1  UNL1        0.1401
     22 F         141.6181  146.1112  163.2683 F       1  UNL1       -0.2042
     23 C         139.2475  145.0480  163.2623 C.ar    1  UNL1        0.0293
     24 C         138.3048  143.9783  162.7967 C.ar    1  UNL1       -0.0019
@<TRIPOS>BOND
     1    14    15    1
     2    15     1    1
     3     1     2    1
     4     2     3    1
     5     3     4    1
     6     4     5    1
     7     5     6    1
     8     6    16    1
     9    16    17    1
    10    17    18    1
    11    18    19   ar
    12    19    20   ar
    13    20    21   ar
    14    21    22    1
    15    21    23   ar
    16    23    24   ar
    17     6     7    1
    18     7     8    1
    19     3     9    1
    20     9    10    1
    21    10    11    1
    22    10    12    1
    23    12    13    2
    24    12     1   am
    25     8     3    1
    26    24    18   ar
@<TRIPOS>MOLECULE
*****
 24 26 0 0 0
SMALL
GASTEIGER

@<TRIPOS>ATOM
      1 N         140.7000  143.7470  161.8801 N.am    1  UNL1       -0.2752
      2 C         140.1109  142.9705  163.0202 C.3     1  UNL1        0.1206
      3 C         140.9034  141.8754  163.6707 C.3     1  UNL1        0.1141
      4 C         141.6958  140.7805  164.3210 C.3     1  UNL1        0.0463
      5 C         141.1067  140.0040  165.4612 C.3     1  UNL1        0.0746
      6 N         139.7252  140.3224  165.9509 N.3     1  UNL1       -0.2722
      7 C         138.9327  141.4174  165.3005 C.3     1  UNL1        0.0746
      8 C         139.5218  142.1939  164.1604 C.3     1  UNL1        0.0463
      9 O         142.2850  141.5570  163.1809 O.3     1  UNL1       -0.3501
     10 C         142.8741  142.3336  162.0407 C.3     1  UNL1        0.1909
     11 C         144.2556  142.0151  161.5510 C.3     1  UNL1        0.0420
     12 C         142.0816  143.4285  161.3903 C.2     1  UNL1        0.2529
     13 O         142.6707  144.2051  160.2501 O.2     1  UNL1       -0.2722
     14 C         139.8320  146.1958  161.8712 C.3     1  UNL1        0.0233
     15 C         139.9076  144.8420  161.2296 C.3     1  UNL1        0.0936
     16 C         139.1361  139.5459  167.0911 C.3     1  UNL1        0.0768
     17 C         139.2533  140.0664  168.4930 C.3     1  UNL1        0.0437
     18 C         140.5041  140.7701  168.9296 C.ar    1  UNL1       -0.0206
     19 C         140.4991  142.2575  169.1234 C.ar    1  UNL1       -0.0019
     20 C         141.7498  142.9611  169.5599 C.ar    1  UNL1        0.0293
     21 C         143.0055  142.1773  169.8027 C.ar    1  UNL1        0.1401
     22 F         144.2562  142.8810  170.2393 F       1  UNL1       -0.2042
     23 C         143.0105  140.6899  169.6089 C.ar    1  UNL1        0.0293
     24 C         141.7598  139.9863  169.1723 C.ar    1  UNL1       -0.0019
@<TRIPOS>BOND
     1    14    15    1
     2    15     1    1
     3     1     2    1
     4     2     3    1
     5     3     4    1
     6     4     5    1
     7     5     6    1
     8     6    16    1
     9    16    17    1
    10    17    18    1
    11    18    19   ar
    12    19    20   ar
    13    20    21   ar
    14    21    22    1
    15    21    23   ar
    16    23    24   ar
    17     6     7    1
    18     7     8    1
    19     3     9    1
    20     9    10    1
    21    10    11    1
    22    10    12    1
    23    12    13    2
    24    12     1   am
    25     8     3    1
    26    24    18   ar
@<TRIPOS>MOLECULE
*****
 24 26 0 0 0
SMALL
GASTEIGER

@<TRIPOS>ATOM
      1 N         141.5121  140.7902  169.2223 N.am    1  UNL1       -0.2752
      2 C         141.3862  140.3741  167.7867 C.3     1  UNL1        0.1206
      3 C         140.0927  139.8074  167.2807 C.3     1  UNL1        0.1141
      4 C         138.7994  139.2407  166.7749 C.3     1  UNL1        0.0463
      5 C         138.6734  138.8247  165.3393 C.3     1  UNL1        0.0746
      6 N         139.8409  138.9753  164.4095 N.3     1  UNL1       -0.2722
      7 C         141.1343  139.5420  164.9154 C.3     1  UNL1        0.0746
      8 C         141.2602  139.9581  166.3510 C.3     1  UNL1        0.0463
      9 O         138.9253  139.6568  168.2105 O.3     1  UNL1       -0.3501
     10 C         139.0513  140.0729  169.6461 C.3     1  UNL1        0.1909
     11 C         137.8838  139.9222  170.5758 C.3     1  UNL1        0.0420
     12 C         140.3447  140.6396  170.1520 C.2     1  UNL1        0.2529
     13 O         140.4707  141.0557  171.5877 O.2     1  UNL1       -0.2722
     14 C         142.9434  142.8350  169.9438 C.3     1  UNL1        0.0233
     15 C         142.8056  141.3569  169.7283 C.3     1  UNL1        0.0936
     16 C         139.7149  138.5592  162.9739 C.3     1  UNL1        0.0768
     17 C         138.9583  139.4209  162.0069 C.3     1  UNL1        0.0437
     18 C         138.8669  140.9008  162.2337 C.ar    1  UNL1       -0.0206
     19 C         137.6881  141.4768  162.9610 C.ar    1  UNL1       -0.0019
     20 C         137.5968  142.9567  163.1878 C.ar    1  UNL1        0.0293
     21 C         138.6842  143.8607  162.6873 C.ar    1  UNL1        0.1401
     22 F         138.5928  145.3406  162.9142 F       1  UNL1       -0.2042
     23 C         139.8629  143.2847  161.9601 C.ar    1  UNL1        0.0293
     24 C         139.9542  141.8048  161.7333 C.ar    1  UNL1       -0.0019
@<TRIPOS>BOND
     1    14    15    1
     2    15     1    1
     3     1     2    1
     4     2     3    1
     5     3     4    1
     6     4     5    1
     7     5     6    1
     8     6    16    1
     9    16    17    1
    10    17    18    1
    11    18    19   ar
    12    19    20   ar
    13    20    21   ar
    14    21    22    1
    15    21    23   ar
    16    23    24   ar
    17     6     7    1
    18     7     8    1
    19     3     9    1
    20     9    10    1
    21    10    11    1
    22    10    12    1
    23    12    13    2
    24    12     1   am
    25     8     3    1
    26    24    18   ar
@<TRIPOS>MOLECULE
*****
 24 26 0 0 0
SMALL
GASTEIGER

@<TRIPOS>ATOM
      1 N         140.9909  140.7052  169.5410 N.am    1  UNL1       -0.2752
      2 C         140.7679  140.6041  168.0612 C.3     1  UNL1        0.1206
      3 C         140.4150  141.8290  167.2704 C.3     1  UNL1        0.1141
      4 C         140.0621  143.0538  166.4798 C.3     1  UNL1        0.0463
      5 C         139.8390  142.9527  164.9999 C.3     1  UNL1        0.0746
      6 N         139.9689  141.6267  164.3107 N.3     1  UNL1       -0.2722
      7 C         140.3218  140.4019  165.1014 C.3     1  UNL1        0.0746
      8 C         140.5448  140.5030  166.5812 C.3     1  UNL1        0.0463
      9 O         140.2851  143.1549  167.9596 O.3     1  UNL1       -0.3501
     10 C         140.5082  143.2560  169.4396 C.3     1  UNL1        0.1909
     11 C         140.3783  144.5819  170.1287 C.3     1  UNL1        0.0420
     12 C         140.8611  142.0311  170.2302 C.2     1  UNL1        0.2529
     13 O         141.0841  142.1322  171.7101 O.2     1  UNL1       -0.2722
     14 C         142.5832  138.7038  169.9985 C.3     1  UNL1        0.0233
     15 C         141.3439  139.4803  170.3317 C.3     1  UNL1        0.0936
     16 C         139.7458  141.5257  162.8308 C.3     1  UNL1        0.0768
     17 C         140.8403  141.0165  161.9404 C.3     1  UNL1        0.0437
     18 C         142.2756  141.2026  162.3348 C.ar    1  UNL1       -0.0206
     19 C         143.1160  140.0121  162.6903 C.ar    1  UNL1       -0.0019
     20 C         144.5512  140.1982  163.0846 C.ar    1  UNL1        0.0293
     21 C         145.1460  141.5747  163.1234 C.ar    1  UNL1        0.1401
     22 F         146.5812  141.7608  163.5178 F       1  UNL1       -0.2042
     23 C         144.3055  142.7652  162.7679 C.ar    1  UNL1        0.0293
     24 C         142.8703  142.5791  162.3736 C.ar    1  UNL1       -0.0019
@<TRIPOS>BOND
     1    14    15    1
     2    15     1    1
     3     1     2    1
     4     2     3    1
     5     3     4    1
     6     4     5    1
     7     5     6    1
     8     6    16    1
     9    16    17    1
    10    17    18    1
    11    18    19   ar
    12    19    20   ar
    13    20    21   ar
    14    21    22    1
    15    21    23   ar
    16    23    24   ar
    17     6     7    1
    18     7     8    1
    19     3     9    1
    20     9    10    1
    21    10    11    1
    22    10    12    1
    23    12    13    2
    24    12     1   am
    25     8     3    1
    26    24    18   ar
@<TRIPOS>MOLECULE
*****
 24 26 0 0 0
SMALL
GASTEIGER

@<TRIPOS>ATOM
      1 N         142.7036  142.3303  161.9626 N.am    1  UNL1       -0.2752
      2 C         142.0961  141.5222  163.0706 C.3     1  UNL1        0.1206
      3 C         140.7617  141.9089  163.6364 C.3     1  UNL1        0.1141
      4 C         139.4275  142.2956  164.2022 C.3     1  UNL1        0.0463
      5 C         138.8199  141.4874  165.3101 C.3     1  UNL1        0.0746
      6 N         139.5467  140.2925  165.8524 N.3     1  UNL1       -0.2722
      7 C         140.8809  139.9058  165.2866 C.3     1  UNL1        0.0746
      8 C         141.4885  140.7139  164.1786 C.3     1  UNL1        0.0463
      9 O         140.0350  143.1038  163.0942 O.3     1  UNL1       -0.3501
     10 C         140.6426  143.9120  161.9861 C.3     1  UNL1        0.1909
     11 C         139.9159  145.1070  161.4439 C.3     1  UNL1        0.0420
     12 C         141.9769  143.5253  161.4204 C.2     1  UNL1        0.2529
     13 O         142.5845  144.3335  160.3123 O.2     1  UNL1       -0.2722
     14 C         145.2376  141.8619  162.2934 C.3     1  UNL1        0.0233
     15 C         144.0379  141.9436  161.3967 C.3     1  UNL1        0.0936
     16 C         138.9390  139.4843  166.9604 C.3     1  UNL1        0.0768
     17 C         139.1537  139.8891  168.3887 C.3     1  UNL1        0.0437
     18 C         140.4252  140.5760  168.7906 C.ar    1  UNL1       -0.0206
     19 C         140.4945  142.0743  168.8098 C.ar    1  UNL1       -0.0019
     20 C         141.7659  142.7611  169.2117 C.ar    1  UNL1        0.0293
     21 C         142.9681  141.9497  169.5945 C.ar    1  UNL1        0.1401
     22 F         144.2396  142.6366  169.9964 F       1  UNL1       -0.2042
     23 C         142.8988  140.4515  169.5753 C.ar    1  UNL1        0.0293
     24 C         141.6273  139.7646  169.1734 C.ar    1  UNL1       -0.0019
@<TRIPOS>BOND
     1    14    15    1
     2    15     1    1
     3     1     2    1
     4     2     3    1
     5     3     4    1
     6     4     5    1
     7     5     6    1
     8     6    16    1
     9    16    17    1
    10    17    18    1
    11    18    19   ar
    12    19    20   ar
    13    20    21   ar
    14    21    22    1
    15    21    23   ar
    16    23    24   ar
    17     6     7    1
    18     7     8    1
    19     3     9    1
    20     9    10    1
    21    10    11    1
    22    10    12    1
    23    12    13    2
    24    12     1   am
    25     8     3    1
    26    24    18   ar
@<TRIPOS>MOLECULE
*****
 24 26 0 0 0
SMALL
GASTEIGER

@<TRIPOS>ATOM
      1 N         139.7128  143.7425  161.4743 N.am    1  UNL1       -0.2752
      2 C         139.7550  143.1887  162.8677 C.3     1  UNL1        0.1206
      3 C         139.2021  141.8229  163.1490 C.3     1  UNL1        0.1141
      4 C         138.6492  140.4572  163.4303 C.3     1  UNL1        0.0463
      5 C         138.6914  139.9034  164.8237 C.3     1  UNL1        0.0746
      6 N         139.2865  140.7153  165.9357 N.3     1  UNL1       -0.2722
      7 C         139.8394  142.0810  165.6544 C.3     1  UNL1        0.0746
      8 C         139.7972  142.6348  164.2611 C.3     1  UNL1        0.0463
      9 O         138.6070  141.0110  162.0370 O.3     1  UNL1       -0.3501
     10 C         138.5648  141.5649  160.6436 C.3     1  UNL1        0.1909
     11 C         137.9696  140.7530  159.5315 C.3     1  UNL1        0.0420
     12 C         139.1177  142.9306  160.3623 C.2     1  UNL1        0.2529
     13 O         139.0755  143.4845  158.9689 O.2     1  UNL1       -0.2722
     14 C         139.6471  146.3146  161.8349 C.3     1  UNL1        0.0233
     15 C         140.2657  145.1082  161.1930 C.3     1  UNL1        0.0936
     16 C         139.3287  140.1614  167.3291 C.3     1  UNL1        0.0768
     17 C         140.6477  139.8603  167.9769 C.3     1  UNL1        0.0437
     18 C         141.3572  140.9228  168.7630 C.ar    1  UNL1       -0.0206
     19 C         142.8172  140.7767  169.0740 C.ar    1  UNL1       -0.0019
     20 C         143.5266  141.8391  169.8600 C.ar    1  UNL1        0.0293
     21 C         142.7759  143.0478  170.3350 C.ar    1  UNL1        0.1401
     22 F         143.4854  144.1103  171.1211 F       1  UNL1       -0.2042
     23 C         141.3158  143.1940  170.0240 C.ar    1  UNL1        0.0293
     24 C         140.6065  142.1315  169.2379 C.ar    1  UNL1       -0.0019
@<TRIPOS>BOND
     1    14    15    1
     2    15     1    1
     3     1     2    1
     4     2     3    1
     5     3     4    1
     6     4     5    1
     7     5     6    1
     8     6    16    1
     9    16    17    1
    10    17    18    1
    11    18    19   ar
    12    19    20   ar
    13    20    21   ar
    14    21    22    1
    15    21    23   ar
    16    23    24   ar
    17     6     7    1
    18     7     8    1
    19     3     9    1
    20     9    10    1
    21    10    11    1
    22    10    12    1
    23    12    13    2
    24    12     1   am
    25     8     3    1
    26    24    18   ar
