@<TRIPOS>MOLECULE
*****
 31 34 0 0 0
SMALL
GASTEIGER

@<TRIPOS>ATOM
      1 C         141.4564  144.5629  160.7132 C.ar    1  UNL1        0.1721
      2 C         140.4541  145.4673  161.3668 C.ar    1  UNL1        0.0400
      3 C         140.5727  145.7871  162.8275 C.ar    1  UNL1        0.0030
      4 C         141.6937  145.2022  163.6346 C.ar    1  UNL1        0.0003
      5 C         142.6960  144.2978  162.9809 C.ar    1  UNL1        0.0309
      6 C         142.5774  143.9781  161.5203 C.ar    1  UNL1        0.1701
      7 C         141.8862  145.1936  158.2297 C.3     1  UNL1        0.2526
      8 O         141.3378  144.2432  159.2524 O.3     1  UNL1       -0.4684
      9 C         143.8170  143.7130  163.7881 C.3     1  UNL1        0.1023
     10 N         143.6368  142.3917  164.4750 N.3     1  UNL1       -0.2689
     11 C         144.5513  141.3335  163.9329 C.3     1  UNL1        0.0724
     12 C         144.7922  139.8839  164.2341 C.3     1  UNL1        0.0173
     13 C         144.2183  138.8922  165.2021 C.3     1  UNL1        0.0014
     14 C         143.1659  138.9391  166.2699 C.3     1  UNL1        0.0001
     15 C         142.2515  139.9973  166.8120 C.3     1  UNL1        0.0014
     16 C         142.0106  141.4469  166.5108 C.3     1  UNL1        0.0173
     17 C         142.5844  142.4387  165.5428 C.3     1  UNL1        0.0724
     18 O         143.5798  143.0736  160.8666 O.3     1  UNL1       -0.4662
     19 C         143.1278  141.8018  160.2122 C.3     1  UNL1        0.2515
     20 C         142.5407  140.6989  161.0421 C.ar    1  UNL1        0.1097
     21 C         142.8729  139.2403  160.9324 C.ar    1  UNL1        0.0553
     22 S         142.0558  138.5010  161.9501 S.2     1  UNL1       -0.0662
     23 C         141.2186  139.5026  162.6889 C.ar    1  UNL1        0.1105
     24 N         141.5183  140.8610  162.1277 N.ar    1  UNL1       -0.2390
     25 C         140.2515  139.1991  163.7945 C.ar    1  UNL1        0.0239
     26 C         139.4060  140.2947  164.3732 C.ar    1  UNL1        0.0029
     27 C         138.4389  139.9912  165.4789 C.ar    1  UNL1        0.0115
     28 C         138.3173  138.5922  166.0060 C.ar    1  UNL1        0.0577
     29 CL        137.3502  138.2887  167.1118 Cl      1  UNL1       -0.0822
     30 C         139.1628  137.4966  165.4274 C.ar    1  UNL1        0.0115
     31 C         140.1299  137.8000  164.3217 C.ar    1  UNL1        0.0029
@<TRIPOS>BOND
     1     7     8    1
     2     8     1    1
     3     1     2   ar
     4     2     3   ar
     5     3     4   ar
     6     4     5   ar
     7     5     9    1
     8     9    10    1
     9    10    11    1
    10    11    12    1
    11    12    13    1
    12    13    14    1
    13    14    15    1
    14    15    16    1
    15    16    17    1
    16     5     6   ar
    17     6    18    1
    18    18    19    1
    19    19    20    1
    20    20    21   ar
    21    21    22   ar
    22    22    23   ar
    23    23    25    1
    24    25    26   ar
    25    26    27   ar
    26    27    28   ar
    27    28    29    1
    28    28    30   ar
    29    30    31   ar
    30    23    24   ar
    31     6     1   ar
    32    24    20   ar
    33    17    10    1
    34    31    25   ar
@<TRIPOS>MOLECULE
*****
 31 34 0 0 0
SMALL
GASTEIGER

@<TRIPOS>ATOM
      1 C         140.5394  144.6991  160.9094 C.ar    1  UNL1        0.1721
      2 C         139.9291  145.6531  161.8931 C.ar    1  UNL1        0.0400
      3 C         138.7702  145.2177  162.7401 C.ar    1  UNL1        0.0030
      4 C         138.2217  143.8283  162.6035 C.ar    1  UNL1        0.0003
      5 C         138.8320  142.8743  161.6198 C.ar    1  UNL1        0.0309
      6 C         139.9908  143.3097  160.7729 C.ar    1  UNL1        0.1701
      7 C         141.4792  145.5076  158.6262 C.3     1  UNL1        0.2526
      8 O         141.6982  145.1346  160.0624 O.3     1  UNL1       -0.4684
      9 C         138.2834  141.4849  161.4833 C.3     1  UNL1        0.1023
     10 N         138.7518  140.3995  162.4066 N.3     1  UNL1       -0.2689
     11 C         139.5226  139.3300  161.6910 C.3     1  UNL1        0.0724
     12 C         140.2003  138.0563  162.1011 C.3     1  UNL1        0.0173
     13 C         140.3880  137.3245  163.3969 C.3     1  UNL1        0.0014
     14 C         139.9757  137.5631  164.8192 C.3     1  UNL1        0.0001
     15 C         139.2049  138.6325  165.5349 C.3     1  UNL1        0.0014
     16 C         138.5272  139.9063  165.1247 C.3     1  UNL1        0.0173
     17 C         138.3395  140.6381  163.8289 C.3     1  UNL1        0.0724
     18 O         140.6011  142.3558  159.7892 O.3     1  UNL1       -0.4662
     19 C         142.0650  142.0371  159.8628 C.3     1  UNL1        0.2515
     20 C         142.5922  141.1874  160.9808 C.ar    1  UNL1        0.1097
     21 C         143.6253  140.1071  160.8557 C.ar    1  UNL1        0.0553
     22 S         143.8504  139.5209  162.2178 S.2     1  UNL1       -0.0662
     23 C         142.9564  140.2388  163.1850 C.ar    1  UNL1        0.1105
     24 N         142.1788  141.2688  162.4205 N.ar    1  UNL1       -0.2390
     25 C         142.8574  139.9734  164.6579 C.ar    1  UNL1        0.0239
     26 C         142.1278  140.9369  165.5463 C.ar    1  UNL1        0.0029
     27 C         142.0288  140.6715  167.0194 C.ar    1  UNL1        0.0115
     28 C         142.6595  139.4426  167.6040 C.ar    1  UNL1        0.0577
     29 CL        142.5605  139.1772  169.0771 Cl      1  UNL1       -0.0822
     30 C         143.3891  138.4791  166.7157 C.ar    1  UNL1        0.0115
     31 C         143.4882  138.7444  165.2427 C.ar    1  UNL1        0.0029
@<TRIPOS>BOND
     1     7     8    1
     2     8     1    1
     3     1     2   ar
     4     2     3   ar
     5     3     4   ar
     6     4     5   ar
     7     5     9    1
     8     9    10    1
     9    10    11    1
    10    11    12    1
    11    12    13    1
    12    13    14    1
    13    14    15    1
    14    15    16    1
    15    16    17    1
    16     5     6   ar
    17     6    18    1
    18    18    19    1
    19    19    20    1
    20    20    21   ar
    21    21    22   ar
    22    22    23   ar
    23    23    25    1
    24    25    26   ar
    25    26    27   ar
    26    27    28   ar
    27    28    29    1
    28    28    30   ar
    29    30    31   ar
    30    23    24   ar
    31     6     1   ar
    32    24    20   ar
    33    17    10    1
    34    31    25   ar
@<TRIPOS>MOLECULE
*****
 31 34 0 0 0
SMALL
GASTEIGER

@<TRIPOS>ATOM
      1 C         141.2341  144.9653  162.9169 C.ar    1  UNL1        0.1721
      2 C         142.2835  145.6524  163.7394 C.ar    1  UNL1        0.0400
      3 C         143.6064  144.9860  163.9761 C.ar    1  UNL1        0.0030
      4 C         143.8797  143.6324  163.3902 C.ar    1  UNL1        0.0003
      5 C         142.8302  142.9454  162.5677 C.ar    1  UNL1        0.0309
      6 C         141.5075  143.6118  162.3310 C.ar    1  UNL1        0.1701
      7 C         139.6631  146.3726  161.3998 C.3     1  UNL1        0.2526
      8 O         139.9113  145.6318  162.6802 O.3     1  UNL1       -0.4684
      9 C         143.1036  141.5918  161.9819 C.3     1  UNL1        0.1023
     10 N         142.5731  140.3615  162.6564 N.3     1  UNL1       -0.2689
     11 C         141.7189  139.5305  161.7456 C.3     1  UNL1        0.0724
     12 C         140.9592  138.2447  161.8845 C.3     1  UNL1        0.0173
     13 C         140.7388  137.2572  162.9919 C.3     1  UNL1        0.0014
     14 C         141.1870  137.1466  164.4191 C.3     1  UNL1        0.0001
     15 C         142.0412  137.9777  165.3300 C.3     1  UNL1        0.0014
     16 C         142.8010  139.2635  165.1910 C.3     1  UNL1        0.0173
     17 C         143.0213  140.2509  164.0836 C.3     1  UNL1        0.0724
     18 O         140.4580  142.9247  161.5085 O.3     1  UNL1       -0.4662
     19 C         139.1693  142.4944  162.1443 C.3     1  UNL1        0.2515
     20 C         139.1870  141.7583  163.4511 C.ar    1  UNL1        0.1097
     21 C         138.5546  140.4251  163.7208 C.ar    1  UNL1        0.0553
     22 S         138.8170  140.0690  165.1540 S.2     1  UNL1       -0.0662
     23 C         139.6116  141.1821  165.7703 C.ar    1  UNL1        0.1105
     24 N         139.8402  142.2261  164.7178 N.ar    1  UNL1       -0.2390
     25 C         140.0929  141.2408  167.1897 C.ar    1  UNL1        0.0239
     26 C         140.0097  140.0226  168.0608 C.ar    1  UNL1        0.0029
     27 C         140.4911  140.0812  169.4803 C.ar    1  UNL1        0.0115
     28 C         141.0557  141.3582  170.0286 C.ar    1  UNL1        0.0577
     29 CL        141.5370  141.4168  171.4481 Cl      1  UNL1       -0.0822
     30 C         141.1389  142.5764  169.1574 C.ar    1  UNL1        0.0115
     31 C         140.6575  142.5178  167.7380 C.ar    1  UNL1        0.0029
@<TRIPOS>BOND
     1     7     8    1
     2     8     1    1
     3     1     2   ar
     4     2     3   ar
     5     3     4   ar
     6     4     5   ar
     7     5     9    1
     8     9    10    1
     9    10    11    1
    10    11    12    1
    11    12    13    1
    12    13    14    1
    13    14    15    1
    14    15    16    1
    15    16    17    1
    16     5     6   ar
    17     6    18    1
    18    18    19    1
    19    19    20    1
    20    20    21   ar
    21    21    22   ar
    22    22    23   ar
    23    23    25    1
    24    25    26   ar
    25    26    27   ar
    26    27    28   ar
    27    28    29    1
    28    28    30   ar
    29    30    31   ar
    30    23    24   ar
    31     6     1   ar
    32    24    20   ar
    33    17    10    1
    34    31    25   ar
@<TRIPOS>MOLECULE
*****
 31 34 0 0 0
SMALL
GASTEIGER

@<TRIPOS>ATOM
      1 C         140.7360  144.4822  161.0163 C.ar    1  UNL1        0.1721
      2 C         140.4321  145.6362  161.9251 C.ar    1  UNL1        0.0400
      3 C         139.2604  145.5671  162.8591 C.ar    1  UNL1        0.0030
      4 C         138.3925  144.3439  162.8841 C.ar    1  UNL1        0.0003
      5 C         138.6964  143.1899  161.9753 C.ar    1  UNL1        0.0309
      6 C         139.8681  143.2590  161.0415 C.ar    1  UNL1        0.1701
      7 C         141.7111  144.9976  158.6639 C.3     1  UNL1        0.2526
      8 O         141.9078  144.5514  160.0824 O.3     1  UNL1       -0.4684
      9 C         137.8285  141.9667  162.0005 C.3     1  UNL1        0.1023
     10 N         138.2133  140.7913  162.8494 N.3     1  UNL1       -0.2689
     11 C         138.2870  141.1359  164.3074 C.3     1  UNL1        0.0724
     12 C         138.6119  140.3791  165.5610 C.3     1  UNL1        0.0173
     13 C         138.9979  138.9642  165.8758 C.3     1  UNL1        0.0014
     14 C         139.2186  137.7201  165.0676 C.3     1  UNL1        0.0001
     15 C         139.1450  137.3755  163.6096 C.3     1  UNL1        0.0014
     16 C         138.8200  138.1323  162.3559 C.3     1  UNL1        0.0173
     17 C         138.4341  139.5472  162.0411 C.3     1  UNL1        0.0724
     18 O         140.1720  142.1050  160.1327 O.3     1  UNL1       -0.4662
     19 C         141.4940  141.4026  160.2286 C.3     1  UNL1        0.2515
     20 C         141.8644  140.6697  161.4838 C.ar    1  UNL1        0.1097
     21 C         142.3211  139.2436  161.5701 C.ar    1  UNL1        0.0553
     22 S         142.5820  138.9269  163.0128 S.2     1  UNL1       -0.0662
     23 C         142.2866  140.1573  163.8184 C.ar    1  UNL1        0.1105
     24 N         141.8431  141.2344  162.8734 N.ar    1  UNL1       -0.2390
     25 C         142.4126  140.2876  165.3073 C.ar    1  UNL1        0.0239
     26 C         142.6398  139.0679  166.1503 C.ar    1  UNL1        0.0029
     27 C         142.7658  139.1981  167.6394 C.ar    1  UNL1        0.0115
     28 C         142.6646  140.5481  168.2853 C.ar    1  UNL1        0.0577
     29 CL        142.7906  140.6784  169.7744 Cl      1  UNL1       -0.0822
     30 C         142.4374  141.7678  167.4423 C.ar    1  UNL1        0.0115
     31 C         142.3114  141.6376  165.9533 C.ar    1  UNL1        0.0029
@<TRIPOS>BOND
     1     7     8    1
     2     8     1    1
     3     1     2   ar
     4     2     3   ar
     5     3     4   ar
     6     4     5   ar
     7     5     9    1
     8     9    10    1
     9    10    11    1
    10    11    12    1
    11    12    13    1
    12    13    14    1
    13    14    15    1
    14    15    16    1
    15    16    17    1
    16     5     6   ar
    17     6    18    1
    18    18    19    1
    19    19    20    1
    20    20    21   ar
    21    21    22   ar
    22    22    23   ar
    23    23    25    1
    24    25    26   ar
    25    26    27   ar
    26    27    28   ar
    27    28    29    1
    28    28    30   ar
    29    30    31   ar
    30    23    24   ar
    31     6     1   ar
    32    24    20   ar
    33    17    10    1
    34    31    25   ar
@<TRIPOS>MOLECULE
*****
 31 34 0 0 0
SMALL
GASTEIGER

@<TRIPOS>ATOM
      1 C         141.5922  144.2959  161.9367 C.ar    1  UNL1        0.1721
      2 C         140.9463  145.4897  162.5752 C.ar    1  UNL1        0.0400
      3 C         139.4959  145.4443  162.9551 C.ar    1  UNL1        0.0030
      4 C         138.6914  144.2049  162.6966 C.ar    1  UNL1        0.0003
      5 C         139.3373  143.0111  162.0581 C.ar    1  UNL1        0.0309
      6 C         140.7876  143.0566  161.6782 C.ar    1  UNL1        0.1701
      7 C         144.0968  144.3705  162.6235 C.3     1  UNL1        0.2526
      8 O         143.0425  144.3414  161.5568 O.3     1  UNL1       -0.4684
      9 C         138.5328  141.7718  161.7996 C.3     1  UNL1        0.1023
     10 N         138.6081  140.6162  162.7530 N.3     1  UNL1       -0.2689
     11 C         138.9645  139.3298  162.0689 C.3     1  UNL1        0.0724
     12 C         139.1698  137.9126  162.5152 C.3     1  UNL1        0.0173
     13 C         139.1036  137.1947  163.8305 C.3     1  UNL1        0.0014
     14 C         138.8048  137.5966  165.2444 C.3     1  UNL1        0.0001
     15 C         138.4483  138.8830  165.9285 C.3     1  UNL1        0.0014
     16 C         138.2430  140.3002  165.4822 C.3     1  UNL1        0.0173
     17 C         138.3092  141.0181  164.1669 C.3     1  UNL1        0.0724
     18 O         141.4335  141.8628  161.0397 O.3     1  UNL1       -0.4662
     19 C         142.5736  141.1703  161.7258 C.3     1  UNL1        0.2515
     20 C         142.3888  140.6062  163.1033 C.ar    1  UNL1        0.1097
     21 C         142.5147  139.1622  163.4891 C.ar    1  UNL1        0.0553
     22 S         142.2492  139.0508  164.9612 S.2     1  UNL1       -0.0662
     23 C         141.9592  140.4261  165.4853 C.ar    1  UNL1        0.1105
     24 N         142.0454  141.3873  164.3371 N.ar    1  UNL1       -0.2390
     25 C         141.6391  140.7781  166.9078 C.ar    1  UNL1        0.0239
     26 C         140.9826  142.0885  167.2266 C.ar    1  UNL1        0.0029
     27 C         140.6625  142.4407  168.6492 C.ar    1  UNL1        0.0115
     28 C         140.9990  141.4822  169.7529 C.ar    1  UNL1        0.0577
     29 CL        140.6789  141.8343  171.1755 Cl      1  UNL1       -0.0822
     30 C         141.6554  140.1718  169.4341 C.ar    1  UNL1        0.0115
     31 C         141.9755  139.8196  168.0116 C.ar    1  UNL1        0.0029
@<TRIPOS>BOND
     1     7     8    1
     2     8     1    1
     3     1     2   ar
     4     2     3   ar
     5     3     4   ar
     6     4     5   ar
     7     5     9    1
     8     9    10    1
     9    10    11    1
    10    11    12    1
    11    12    13    1
    12    13    14    1
    13    14    15    1
    14    15    16    1
    15    16    17    1
    16     5     6   ar
    17     6    18    1
    18    18    19    1
    19    19    20    1
    20    20    21   ar
    21    21    22   ar
    22    22    23   ar
    23    23    25    1
    24    25    26   ar
    25    26    27   ar
    26    27    28   ar
    27    28    29    1
    28    28    30   ar
    29    30    31   ar
    30    23    24   ar
    31     6     1   ar
    32    24    20   ar
    33    17    10    1
    34    31    25   ar
@<TRIPOS>MOLECULE
*****
 31 34 0 0 0
SMALL
GASTEIGER

@<TRIPOS>ATOM
      1 C         137.9676  143.0544  163.0243 C.ar    1  UNL1        0.1721
      2 C         137.3852  143.5590  164.3112 C.ar    1  UNL1        0.0400
      3 C         138.1452  144.5517  165.1402 C.ar    1  UNL1        0.0030
      4 C         139.4876  145.0397  164.6821 C.ar    1  UNL1        0.0003
      5 C         140.0699  144.5351  163.3951 C.ar    1  UNL1        0.0309
      6 C         139.3100  143.5425  162.5663 C.ar    1  UNL1        0.1701
      7 C         137.3397  140.5939  162.4748 C.3     1  UNL1        0.2526
      8 O         137.2076  142.0618  162.1955 O.3     1  UNL1       -0.4684
      9 C         141.4123  145.0232  162.9371 C.3     1  UNL1        0.1023
     10 N         142.6102  144.1255  163.0349 N.3     1  UNL1       -0.2689
     11 C         143.1678  143.7638  161.6902 C.3     1  UNL1        0.0724
     12 C         144.3154  142.9270  161.2081 C.3     1  UNL1        0.0173
     13 C         145.3810  142.1053  161.8709 C.3     1  UNL1        0.0014
     14 C         145.7402  141.7800  163.2905 C.3     1  UNL1        0.0001
     15 C         145.1826  142.1418  164.6352 C.3     1  UNL1        0.0014
     16 C         144.0349  142.9786  165.1173 C.3     1  UNL1        0.0173
     17 C         142.9694  143.8003  164.4545 C.3     1  UNL1        0.0724
     18 O         139.8924  143.0379  161.2794 O.3     1  UNL1       -0.4662
     19 C         140.4056  141.6312  161.1889 C.3     1  UNL1        0.2515
     20 C         141.0226  140.9794  162.3906 C.ar    1  UNL1        0.1097
     21 C         142.2121  140.0656  162.3848 C.ar    1  UNL1        0.0553
     22 S         142.4831  139.6484  163.7998 S.2     1  UNL1       -0.0662
     23 C         141.4611  140.3043  164.6804 C.ar    1  UNL1        0.1105
     24 N         140.5584  141.1269  163.8094 N.ar    1  UNL1       -0.2390
     25 C         141.3595  140.1625  166.1701 C.ar    1  UNL1        0.0239
     26 C         142.6011  139.9861  166.9931 C.ar    1  UNL1        0.0029
     27 C         142.4996  139.8442  168.4829 C.ar    1  UNL1        0.0115
     28 C         141.1565  139.8788  169.1498 C.ar    1  UNL1        0.0577
     29 CL        141.0550  139.7370  170.6397 Cl      1  UNL1       -0.0822
     30 C         139.9149  140.0552  168.3269 C.ar    1  UNL1        0.0115
     31 C         140.0163  140.1971  166.8371 C.ar    1  UNL1        0.0029
@<TRIPOS>BOND
     1     7     8    1
     2     8     1    1
     3     1     2   ar
     4     2     3   ar
     5     3     4   ar
     6     4     5   ar
     7     5     9    1
     8     9    10    1
     9    10    11    1
    10    11    12    1
    11    12    13    1
    12    13    14    1
    13    14    15    1
    14    15    16    1
    15    16    17    1
    16     5     6   ar
    17     6    18    1
    18    18    19    1
    19    19    20    1
    20    20    21   ar
    21    21    22   ar
    22    22    23   ar
    23    23    25    1
    24    25    26   ar
    25    26    27   ar
    26    27    28   ar
    27    28    29    1
    28    28    30   ar
    29    30    31   ar
    30    23    24   ar
    31     6     1   ar
    32    24    20   ar
    33    17    10    1
    34    31    25   ar
@<TRIPOS>MOLECULE
*****
 31 34 0 0 0
SMALL
GASTEIGER

@<TRIPOS>ATOM
      1 C         139.8318  143.4523  159.2229 C.ar    1  UNL1        0.1721
      2 C         140.4372  142.6215  158.1306 C.ar    1  UNL1        0.0400
      3 C         140.1413  141.1530  158.0536 C.ar    1  UNL1        0.0030
      4 C         139.2399  140.5154  159.0690 C.ar    1  UNL1        0.0003
      5 C         138.6345  141.3462  160.1613 C.ar    1  UNL1        0.0309
      6 C         138.9305  142.8146  160.2383 C.ar    1  UNL1        0.1701
      7 C         141.4006  145.4609  158.7182 C.3     1  UNL1        0.2526
      8 O         140.1278  144.9208  159.2999 O.3     1  UNL1       -0.4684
      9 C         137.7332  140.7085  161.1767 C.3     1  UNL1        0.1023
     10 N         138.3183  139.8983  162.2953 N.3     1  UNL1       -0.2689
     11 C         137.8472  140.3568  163.6436 C.3     1  UNL1        0.0724
     12 C         138.0998  139.9266  165.0582 C.3     1  UNL1        0.0173
     13 C         138.9283  138.8597  165.7104 C.3     1  UNL1        0.0014
     14 C         139.8473  137.7812  165.2183 C.3     1  UNL1        0.0001
     15 C         140.3184  137.3228  163.8700 C.3     1  UNL1        0.0014
     16 C         140.0657  137.7529  162.4555 C.3     1  UNL1        0.0173
     17 C         139.2373  138.8198  161.8032 C.3     1  UNL1        0.0724
     18 O         138.3251  143.6455  161.3306 O.3     1  UNL1       -0.4662
     19 C         139.2109  144.3920  162.2837 C.3     1  UNL1        0.2515
     20 C         139.7539  143.7020  163.4997 C.ar    1  UNL1        0.1097
     21 C         139.5130  144.1058  164.9241 C.ar    1  UNL1        0.0553
     22 S         140.2435  143.1403  165.8095 S.2     1  UNL1       -0.0662
     23 C         140.9360  142.1396  164.9325 C.ar    1  UNL1        0.1105
     24 N         140.6334  142.4868  163.5049 N.ar    1  UNL1       -0.2390
     25 C         141.7824  140.9933  165.4007 C.ar    1  UNL1        0.0239
     26 C         141.8202  140.6346  166.8567 C.ar    1  UNL1        0.0029
     27 C         142.6666  139.4881  167.3250 C.ar    1  UNL1        0.0115
     28 C         143.4752  138.7003  166.3373 C.ar    1  UNL1        0.0577
     29 CL        144.3216  137.5539  166.8056 Cl      1  UNL1       -0.0822
     30 C         143.4373  139.0590  164.8813 C.ar    1  UNL1        0.0115
     31 C         142.5910  140.2054  164.4130 C.ar    1  UNL1        0.0029
@<TRIPOS>BOND
     1     7     8    1
     2     8     1    1
     3     1     2   ar
     4     2     3   ar
     5     3     4   ar
     6     4     5   ar
     7     5     9    1
     8     9    10    1
     9    10    11    1
    10    11    12    1
    11    12    13    1
    12    13    14    1
    13    14    15    1
    14    15    16    1
    15    16    17    1
    16     5     6   ar
    17     6    18    1
    18    18    19    1
    19    19    20    1
    20    20    21   ar
    21    21    22   ar
    22    22    23   ar
    23    23    25    1
    24    25    26   ar
    25    26    27   ar
    26    27    28   ar
    27    28    29    1
    28    28    30   ar
    29    30    31   ar
    30    23    24   ar
    31     6     1   ar
    32    24    20   ar
    33    17    10    1
    34    31    25   ar
@<TRIPOS>MOLECULE
*****
 31 34 0 0 0
SMALL
GASTEIGER

@<TRIPOS>ATOM
      1 C         142.5717  139.0775  159.5647 C.ar    1  UNL1        0.1721
      2 C         142.2890  139.9632  158.3876 C.ar    1  UNL1        0.0400
      3 C         142.0120  141.4226  158.5964 C.ar    1  UNL1        0.0030
      4 C         142.0177  141.9961  159.9825 C.ar    1  UNL1        0.0003
      5 C         142.3004  141.1104  161.1596 C.ar    1  UNL1        0.0309
      6 C         142.5774  139.6511  160.9507 C.ar    1  UNL1        0.1701
      7 C         142.7035  137.0152  157.9900 C.3     1  UNL1        0.2526
      8 O         142.8487  137.6182  159.3558 O.3     1  UNL1       -0.4684
      9 C         142.3060  141.6840  162.5455 C.3     1  UNL1        0.1023
     10 N         141.0679  142.3277  163.0960 N.3     1  UNL1       -0.2689
     11 C         139.8320  141.5237  162.8204 C.3     1  UNL1        0.0724
     12 C         138.3725  141.6832  163.1276 C.3     1  UNL1        0.0173
     13 C         137.5444  142.7129  163.8375 C.3     1  UNL1        0.0014
     14 C         137.8328  144.0095  164.5343 C.3     1  UNL1        0.0001
     15 C         139.0687  144.8135  164.8098 C.3     1  UNL1        0.0014
     16 C         140.5282  144.6540  164.5027 C.3     1  UNL1        0.0173
     17 C         141.3563  143.6243  163.7928 C.3     1  UNL1        0.0724
     18 O         142.8600  138.7654  162.1278 O.3     1  UNL1       -0.4662
     19 C         141.7900  137.8570  162.6570 C.3     1  UNL1        0.2515
     20 C         140.9341  138.2971  163.8075 C.ar    1  UNL1        0.1097
     21 C         139.5560  137.7964  164.1234 C.ar    1  UNL1        0.0553
     22 S         139.0763  138.5051  165.3552 S.2     1  UNL1       -0.0662
     23 C         140.1580  139.4439  165.8008 C.ar    1  UNL1        0.1105
     24 N         141.3062  139.3153  164.8443 N.ar    1  UNL1       -0.2390
     25 C         140.1014  140.3518  166.9934 C.ar    1  UNL1        0.0239
     26 C         139.5424  139.8503  168.2919 C.ar    1  UNL1        0.0029
     27 C         139.4858  140.7582  169.4846 C.ar    1  UNL1        0.0115
     28 C         139.9883  142.1676  169.3789 C.ar    1  UNL1        0.0577
     29 CL        139.9316  143.0755  170.5716 Cl      1  UNL1       -0.0822
     30 C         140.5473  142.6690  168.0804 C.ar    1  UNL1        0.0115
     31 C         140.6039  141.7612  166.8877 C.ar    1  UNL1        0.0029
@<TRIPOS>BOND
     1     7     8    1
     2     8     1    1
     3     1     2   ar
     4     2     3   ar
     5     3     4   ar
     6     4     5   ar
     7     5     9    1
     8     9    10    1
     9    10    11    1
    10    11    12    1
    11    12    13    1
    12    13    14    1
    13    14    15    1
    14    15    16    1
    15    16    17    1
    16     5     6   ar
    17     6    18    1
    18    18    19    1
    19    19    20    1
    20    20    21   ar
    21    21    22   ar
    22    22    23   ar
    23    23    25    1
    24    25    26   ar
    25    26    27   ar
    26    27    28   ar
    27    28    29    1
    28    28    30   ar
    29    30    31   ar
    30    23    24   ar
    31     6     1   ar
    32    24    20   ar
    33    17    10    1
    34    31    25   ar
@<TRIPOS>MOLECULE
*****
 31 34 0 0 0
SMALL
GASTEIGER

@<TRIPOS>ATOM
      1 C         140.4500  144.4598  159.6306 C.ar    1  UNL1        0.1721
      2 C         139.6149  143.7203  158.6276 C.ar    1  UNL1        0.0400
      3 C         138.6215  142.6954  159.0887 C.ar    1  UNL1        0.0030
      4 C         138.4630  142.4101  160.5528 C.ar    1  UNL1        0.0003
      5 C         139.2981  143.1496  161.5557 C.ar    1  UNL1        0.0309
      6 C         140.2915  144.1744  161.0946 C.ar    1  UNL1        0.1701
      7 C         142.1497  145.3078  157.8580 C.3     1  UNL1        0.2526
      8 O         141.4434  145.4847  159.1694 O.3     1  UNL1       -0.4684
      9 C         139.1396  142.8641  163.0197 C.3     1  UNL1        0.1023
     10 N         139.4121  141.4874  163.5493 N.3     1  UNL1       -0.2689
     11 C         140.6328  140.8677  162.9363 C.3     1  UNL1        0.0724
     12 C         141.3469  139.5574  163.0876 C.3     1  UNL1        0.0173
     13 C         141.1362  138.3239  163.9147 C.3     1  UNL1        0.0014
     14 C         140.1239  137.8899  164.9330 C.3     1  UNL1        0.0001
     15 C         138.9032  138.5095  165.5461 C.3     1  UNL1        0.0014
     16 C         138.1891  139.8199  165.3947 C.3     1  UNL1        0.0173
     17 C         138.3998  141.0533  164.5676 C.3     1  UNL1        0.0724
     18 O         141.1265  144.9139  162.0975 O.3     1  UNL1       -0.4662
     19 C         142.5394  144.4838  162.3601 C.3     1  UNL1        0.2515
     20 C         142.8455  143.5810  163.5182 C.ar    1  UNL1        0.1097
     21 C         143.9634  142.5833  163.5870 C.ar    1  UNL1        0.0553
     22 S         143.8962  141.9032  164.9222 S.2     1  UNL1       -0.0662
     23 C         142.7367  142.4805  165.6787 C.ar    1  UNL1        0.1105
     24 N         142.0874  143.5175  164.8110 N.ar    1  UNL1       -0.2390
     25 C         142.3029  142.0895  167.0603 C.ar    1  UNL1        0.0239
     26 C         143.2369  142.2723  168.2196 C.ar    1  UNL1        0.0029
     27 C         142.8031  141.8813  169.6013 C.ar    1  UNL1        0.0115
     28 C         141.4351  141.3076  169.8236 C.ar    1  UNL1        0.0577
     29 CL        141.0012  140.9166  171.2052 Cl      1  UNL1       -0.0822
     30 C         140.5010  141.1248  168.6642 C.ar    1  UNL1        0.0115
     31 C         140.9348  141.5157  167.2826 C.ar    1  UNL1        0.0029
@<TRIPOS>BOND
     1     7     8    1
     2     8     1    1
     3     1     2   ar
     4     2     3   ar
     5     3     4   ar
     6     4     5   ar
     7     5     9    1
     8     9    10    1
     9    10    11    1
    10    11    12    1
    11    12    13    1
    12    13    14    1
    13    14    15    1
    14    15    16    1
    15    16    17    1
    16     5     6   ar
    17     6    18    1
    18    18    19    1
    19    19    20    1
    20    20    21   ar
    21    21    22   ar
    22    22    23   ar
    23    23    25    1
    24    25    26   ar
    25    26    27   ar
    26    27    28   ar
    27    28    29    1
    28    28    30   ar
    29    30    31   ar
    30    23    24   ar
    31     6     1   ar
    32    24    20   ar
    33    17    10    1
    34    31    25   ar
