@<TRIPOS>MOLECULE
*****
 36 41 0 0 0
SMALL
GASTEIGER

@<TRIPOS>ATOM
      1 S         140.6694  145.1495  158.4760 S.3     1  UNL1       -0.0756
      2 C         141.4013  144.6487  162.2548 C.ar    1  UNL1        0.1669
      3 N         140.2024  145.5488  162.3085 N.ar    1  UNL1       -0.1282
      4 N         139.7824  145.8459  160.8995 N.ar    1  UNL1       -0.1221
      5 C         140.7216  145.1295  159.9750 C.ar    1  UNL1        0.1932
      6 N         141.7220  144.3896  160.8126 N.ar    1  UNL1       -0.2884
      7 C         142.8461  143.5398  160.2984 C.3     1  UNL1        0.1340
      8 C         139.5026  140.1515  167.0944 C.3     1  UNL1        0.0521
      9 C         140.1639  141.1396  166.1797 C.ar    1  UNL1        0.0593
     10 C         139.4171  141.6847  164.9986 C.ar    1  UNL1        0.0147
     11 C         140.0785  142.6727  164.0840 C.ar    1  UNL1        0.0028
     12 C         141.4867  143.1155  164.3505 C.ar    1  UNL1        0.0206
     13 C         142.1480  144.1035  163.4359 C.ar    1  UNL1        0.0374
     14 C         143.5561  144.5463  163.7025 C.ar    1  UNL1        0.0031
     15 C         144.3030  144.0011  164.8836 C.ar    1  UNL1        0.0016
     16 C         143.6416  143.0132  165.7981 C.ar    1  UNL1        0.0191
     17 C         142.2335  142.5703  165.5317 C.ar    1  UNL1        0.0810
     18 N         141.5722  141.5823  166.4463 N.ar    1  UNL1       -0.2497
     19 C         139.6480  144.3251  157.7502 C.3     1  UNL1        0.0666
     20 C         139.8459  142.8455  157.6024 C.3     1  UNL1        0.0294
     21 C         138.8037  141.8949  158.1125 C.3     1  UNL1        0.0730
     22 N         139.0714  141.0772  159.3413 N.3     1  UNL1       -0.2720
     23 C         137.9341  140.2206  159.8135 C.3     1  UNL1        0.0768
     24 C         137.8855  139.2995  160.9964 C.3     1  UNL1        0.0434
     25 C         138.9620  139.0076  161.9992 C.ar    1  UNL1       -0.0241
     26 C         138.4982  138.0210  163.0296 C.ar    1  UNL1       -0.0030
     27 C         139.4256  137.5914  164.1275 C.ar    1  UNL1        0.0193
     28 C         140.8167  138.1483  164.1952 C.ar    1  UNL1        0.0871
     29 N         141.9464  137.9134  165.1536 N.ar    1  UNL1       -0.2427
     30 C         143.1084  138.7548  164.7156 C.ar    1  UNL1        0.0886
     31 C         144.4470  138.8284  165.3885 C.3     1  UNL1        0.0594
     32 S         142.6969  139.5098  163.4865 S.2     1  UNL1       -0.0711
     33 C         141.2805  139.1349  163.1648 C.ar    1  UNL1        0.0439
     34 C         140.3532  139.5645  162.0669 C.ar    1  UNL1       -0.0172
     35 C         141.0113  140.5511  161.1484 C.3     1  UNL1        0.0439
     36 C         140.4408  141.2242  159.9354 C.3     1  UNL1        0.0768
@<TRIPOS>BOND
     1     8     9    1
     2     9    10   ar
     3    10    11   ar
     4    11    12   ar
     5    12    13   ar
     6    13     2    1
     7     2     3   ar
     8     3     4   ar
     9     4     5   ar
    10     5     1    1
    11     1    19    1
    12    19    20    1
    13    20    21    1
    14    21    22    1
    15    22    23    1
    16    23    24    1
    17    24    25    1
    18    25    26   ar
    19    26    27   ar
    20    27    28   ar
    21    28    29   ar
    22    29    30   ar
    23    30    31    1
    24    30    32   ar
    25    32    33   ar
    26    33    34   ar
    27    34    35    1
    28    35    36    1
    29     5     6   ar
    30     6     7    1
    31    13    14   ar
    32    14    15   ar
    33    15    16   ar
    34    16    17   ar
    35    17    18   ar
    36    18     9   ar
    37    17    12   ar
    38     6     2   ar
    39    36    22    1
    40    34    25   ar
    41    33    28   ar
@<TRIPOS>MOLECULE
*****
 36 41 0 0 0
SMALL
GASTEIGER

@<TRIPOS>ATOM
      1 S         139.9073  145.6003  161.2797 S.3     1  UNL1       -0.0756
      2 C         140.1803  143.0712  164.2113 C.ar    1  UNL1        0.1669
      3 N         141.3634  143.9538  164.4788 N.ar    1  UNL1       -0.1282
      4 N         141.4050  145.0086  163.4132 N.ar    1  UNL1       -0.1221
      5 C         140.2478  144.7779  162.4871 C.ar    1  UNL1        0.1932
      6 N         139.4910  143.5806  162.9804 N.ar    1  UNL1       -0.2884
      7 C         138.2606  142.9952  162.3528 C.3     1  UNL1        0.1340
      8 C         142.8931  140.3557  169.9138 C.3     1  UNL1        0.0521
      9 C         142.1099  140.7386  168.6930 C.ar    1  UNL1        0.0593
     10 C         142.5298  141.9227  167.8735 C.ar    1  UNL1        0.0147
     11 C         141.7466  142.3055  166.6528 C.ar    1  UNL1        0.0028
     12 C         140.5437  141.5043  166.2516 C.ar    1  UNL1        0.0206
     13 C         139.7605  141.8871  165.0308 C.ar    1  UNL1        0.0374
     14 C         138.5576  141.0859  164.6298 C.ar    1  UNL1        0.0031
     15 C         138.1378  139.9018  165.4493 C.ar    1  UNL1        0.0016
     16 C         138.9208  139.5190  166.6700 C.ar    1  UNL1        0.0191
     17 C         140.1238  140.3202  167.0711 C.ar    1  UNL1        0.0810
     18 N         140.9069  139.9373  168.2919 N.ar    1  UNL1       -0.2497
     19 C         140.7714  145.5289  160.0557 C.3     1  UNL1        0.0666
     20 C         140.3575  144.6746  158.8942 C.3     1  UNL1        0.0294
     21 C         141.0451  143.3653  158.6436 C.3     1  UNL1        0.0730
     22 N         140.8855  142.2358  159.6176 N.3     1  UNL1       -0.2720
     23 C         139.7096  141.3347  159.3821 C.3     1  UNL1        0.0768
     24 C         139.2806  140.1319  160.1692 C.3     1  UNL1        0.0434
     25 C         139.9216  139.5332  161.3860 C.ar    1  UNL1       -0.0241
     26 C         139.1692  138.3269  161.8643 C.ar    1  UNL1       -0.0030
     27 C         139.6450  137.5767  163.0729 C.ar    1  UNL1        0.0193
     28 C         140.8732  138.0328  163.8034 C.ar    1  UNL1        0.0871
     29 N         141.5763  137.4987  165.0158 N.ar    1  UNL1       -0.2427
     30 C         142.7633  138.3748  165.2870 C.ar    1  UNL1        0.0886
     31 C         143.7471  138.2051  166.4064 C.3     1  UNL1        0.0594
     32 S         142.7938  139.4505  164.2420 S.2     1  UNL1       -0.0711
     33 C         141.6256  139.2392  163.3250 C.ar    1  UNL1        0.0439
     34 C         141.1498  139.9893  162.1164 C.ar    1  UNL1       -0.0172
     35 C         142.0404  141.1569  161.8103 C.3     1  UNL1        0.0439
     36 C         141.9227  142.1566  160.6982 C.3     1  UNL1        0.0768
@<TRIPOS>BOND
     1     8     9    1
     2     9    10   ar
     3    10    11   ar
     4    11    12   ar
     5    12    13   ar
     6    13     2    1
     7     2     3   ar
     8     3     4   ar
     9     4     5   ar
    10     5     1    1
    11     1    19    1
    12    19    20    1
    13    20    21    1
    14    21    22    1
    15    22    23    1
    16    23    24    1
    17    24    25    1
    18    25    26   ar
    19    26    27   ar
    20    27    28   ar
    21    28    29   ar
    22    29    30   ar
    23    30    31    1
    24    30    32   ar
    25    32    33   ar
    26    33    34   ar
    27    34    35    1
    28    35    36    1
    29     5     6   ar
    30     6     7    1
    31    13    14   ar
    32    14    15   ar
    33    15    16   ar
    34    16    17   ar
    35    17    18   ar
    36    18     9   ar
    37    17    12   ar
    38     6     2   ar
    39    36    22    1
    40    34    25   ar
    41    33    28   ar
@<TRIPOS>MOLECULE
*****
 36 41 0 0 0
SMALL
GASTEIGER

@<TRIPOS>ATOM
      1 S         142.1117  140.0158  169.2082 S.3     1  UNL1       -0.0756
      2 C         143.6529  140.0097  165.6459 C.ar    1  UNL1        0.1669
      3 N         143.8803  138.5867  166.0626 N.ar    1  UNL1       -0.1282
      4 N         143.3306  138.4159  167.4477 N.ar    1  UNL1       -0.1221
      5 C         142.7635  139.7332  167.8871 C.ar    1  UNL1        0.1932
      6 N         142.9628  140.7182  166.7736 N.ar    1  UNL1       -0.2884
      7 C         142.5451  142.1589  166.7856 C.3     1  UNL1        0.1340
      8 C         142.8194  137.7443  159.2098 C.3     1  UNL1        0.0521
      9 C         143.1262  138.4626  160.4904 C.ar    1  UNL1        0.0593
     10 C         142.7325  137.8549  161.8041 C.ar    1  UNL1        0.0147
     11 C         143.0393  138.5732  163.0847 C.ar    1  UNL1        0.0028
     12 C         143.7398  139.8992  163.0517 C.ar    1  UNL1        0.0206
     13 C         144.0466  140.6174  164.3323 C.ar    1  UNL1        0.0374
     14 C         144.7471  141.9434  164.2992 C.ar    1  UNL1        0.0031
     15 C         145.1408  142.5511  162.9855 C.ar    1  UNL1        0.0016
     16 C         144.8340  141.8328  161.7050 C.ar    1  UNL1        0.0191
     17 C         144.1335  140.5069  161.7380 C.ar    1  UNL1        0.0810
     18 N         143.8267  139.7886  160.4573 N.ar    1  UNL1       -0.2497
     19 C         140.6190  139.9462  169.3381 C.3     1  UNL1        0.0666
     20 C         139.7456  140.4115  168.2107 C.3     1  UNL1        0.0294
     21 C         139.0035  139.4112  167.3749 C.3     1  UNL1        0.0730
     22 N         139.1551  139.4210  165.8826 N.3     1  UNL1       -0.2720
     23 C         138.7007  138.1793  165.1742 C.3     1  UNL1        0.0768
     24 C         138.7201  137.8811  163.7042 C.3     1  UNL1        0.0434
     25 C         139.1984  138.7508  162.5797 C.ar    1  UNL1       -0.0241
     26 C         139.0411  138.0678  161.2535 C.ar    1  UNL1       -0.0030
     27 C         139.4609  138.7676  159.9950 C.ar    1  UNL1        0.0193
     28 C         140.0382  140.1505  160.0625 C.ar    1  UNL1        0.0871
     29 N         140.5371  141.0830  158.9988 N.ar    1  UNL1       -0.2427
     30 C         141.0028  142.3423  159.6676 C.ar    1  UNL1        0.0886
     31 C         141.5785  143.5447  158.9801 C.3     1  UNL1        0.0594
     32 S         140.7917  142.1881  161.1447 S.2     1  UNL1       -0.0711
     33 C         140.1956  140.8335  161.3888 C.ar    1  UNL1        0.0439
     34 C         139.7757  140.1336  162.6473 C.ar    1  UNL1       -0.0172
     35 C         140.0171  140.9882  163.8562 C.3     1  UNL1        0.0439
     36 C         139.7409  140.6710  165.2960 C.3     1  UNL1        0.0768
@<TRIPOS>BOND
     1     8     9    1
     2     9    10   ar
     3    10    11   ar
     4    11    12   ar
     5    12    13   ar
     6    13     2    1
     7     2     3   ar
     8     3     4   ar
     9     4     5   ar
    10     5     1    1
    11     1    19    1
    12    19    20    1
    13    20    21    1
    14    21    22    1
    15    22    23    1
    16    23    24    1
    17    24    25    1
    18    25    26   ar
    19    26    27   ar
    20    27    28   ar
    21    28    29   ar
    22    29    30   ar
    23    30    31    1
    24    30    32   ar
    25    32    33   ar
    26    33    34   ar
    27    34    35    1
    28    35    36    1
    29     5     6   ar
    30     6     7    1
    31    13    14   ar
    32    14    15   ar
    33    15    16   ar
    34    16    17   ar
    35    17    18   ar
    36    18     9   ar
    37    17    12   ar
    38     6     2   ar
    39    36    22    1
    40    34    25   ar
    41    33    28   ar
@<TRIPOS>MOLECULE
*****
 36 41 0 0 0
SMALL
GASTEIGER

@<TRIPOS>ATOM
      1 S         142.0849  144.0349  158.5416 S.3     1  UNL1       -0.0756
      2 C         141.9101  141.2309  161.2199 C.ar    1  UNL1        0.1669
      3 N         143.1630  141.9464  161.6305 N.ar    1  UNL1       -0.1282
      4 N         143.3809  143.0837  160.6772 N.ar    1  UNL1       -0.1221
      5 C         142.2628  143.0713  159.6774 C.ar    1  UNL1        0.1932
      6 N         141.3538  141.9263  160.0128 N.ar    1  UNL1       -0.2884
      7 C         140.1072  141.5436  159.2713 C.3     1  UNL1        0.1340
      8 C         143.8864  137.8040  166.8413 C.3     1  UNL1        0.0521
      9 C         143.2442  138.3608  165.6053 C.ar    1  UNL1        0.0593
     10 C         143.8367  139.5608  164.9278 C.ar    1  UNL1        0.0147
     11 C         143.1945  140.1175  163.6918 C.ar    1  UNL1        0.0028
     12 C         141.9598  139.4743  163.1334 C.ar    1  UNL1        0.0206
     13 C         141.3176  140.0310  161.8974 C.ar    1  UNL1        0.0374
     14 C         140.0830  139.3878  161.3390 C.ar    1  UNL1        0.0031
     15 C         139.4905  138.1878  162.0165 C.ar    1  UNL1        0.0016
     16 C         140.1327  137.6311  163.2524 C.ar    1  UNL1        0.0191
     17 C         141.3673  138.2743  163.8109 C.ar    1  UNL1        0.0810
     18 N         142.0095  137.7175  165.0469 N.ar    1  UNL1       -0.2497
     19 C         141.3677  145.3332  158.7650 C.3     1  UNL1        0.0666
     20 C         140.1431  145.3743  159.6304 C.3     1  UNL1        0.0294
     21 C         140.2694  145.6727  161.0949 C.3     1  UNL1        0.0730
     22 N         140.0712  144.5796  162.1029 N.3     1  UNL1       -0.2720
     23 C         138.8794  143.6965  161.8793 C.3     1  UNL1        0.0768
     24 C         138.4130  142.5298  162.6988 C.3     1  UNL1        0.0434
     25 C         139.0232  141.9582  163.9440 C.ar    1  UNL1       -0.0241
     26 C         138.2378  140.7847  164.4502 C.ar    1  UNL1       -0.0030
     27 C         138.6798  140.0649  165.6898 C.ar    1  UNL1        0.0193
     28 C         139.9070  140.5186  166.4233 C.ar    1  UNL1        0.0871
     29 N         140.5809  140.0099  167.6631 N.ar    1  UNL1       -0.2427
     30 C         141.7827  140.8690  167.9233 C.ar    1  UNL1        0.0886
     31 C         142.7464  140.7154  169.0624 C.3     1  UNL1        0.0594
     32 S         141.8516  141.9087  166.8442 S.2     1  UNL1       -0.0711
     33 C         140.6924  141.6921  165.9172 C.ar    1  UNL1        0.0439
     34 C         140.2504  142.4119  164.6776 C.ar    1  UNL1       -0.0172
     35 C         141.1706  143.5494  164.3469 C.3     1  UNL1        0.0439
     36 C         141.0908  144.5141  163.2010 C.3     1  UNL1        0.0768
@<TRIPOS>BOND
     1     8     9    1
     2     9    10   ar
     3    10    11   ar
     4    11    12   ar
     5    12    13   ar
     6    13     2    1
     7     2     3   ar
     8     3     4   ar
     9     4     5   ar
    10     5     1    1
    11     1    19    1
    12    19    20    1
    13    20    21    1
    14    21    22    1
    15    22    23    1
    16    23    24    1
    17    24    25    1
    18    25    26   ar
    19    26    27   ar
    20    27    28   ar
    21    28    29   ar
    22    29    30   ar
    23    30    31    1
    24    30    32   ar
    25    32    33   ar
    26    33    34   ar
    27    34    35    1
    28    35    36    1
    29     5     6   ar
    30     6     7    1
    31    13    14   ar
    32    14    15   ar
    33    15    16   ar
    34    16    17   ar
    35    17    18   ar
    36    18     9   ar
    37    17    12   ar
    38     6     2   ar
    39    36    22    1
    40    34    25   ar
    41    33    28   ar
@<TRIPOS>MOLECULE
*****
 36 41 0 0 0
SMALL
GASTEIGER

@<TRIPOS>ATOM
      1 S         138.1069  140.8081  157.8094 S.3     1  UNL1       -0.0756
      2 C         138.9652  143.0002  160.8955 C.ar    1  UNL1        0.1669
      3 N         139.4877  143.8546  159.7787 N.ar    1  UNL1       -0.1282
      4 N         139.2298  143.1374  158.4868 N.ar    1  UNL1       -0.1221
      5 C         138.5479  141.8398  158.8051 C.ar    1  UNL1        0.1932
      6 N         138.3844  141.7551  160.2937 N.ar    1  UNL1       -0.2884
      7 C         137.7511  140.6237  161.0481 C.3     1  UNL1        0.1340
      8 C         144.2280  143.0776  165.3167 C.3     1  UNL1        0.0521
      9 C         142.9247  143.1414  164.5768 C.ar    1  UNL1        0.0593
     10 C         142.8751  142.8089  163.1150 C.ar    1  UNL1        0.0147
     11 C         141.5718  142.8727  162.3752 C.ar    1  UNL1        0.0028
     12 C         140.3181  143.2689  163.0971 C.ar    1  UNL1        0.0206
     13 C         139.0148  143.3327  162.3572 C.ar    1  UNL1        0.0374
     14 C         137.7612  143.7290  163.0793 C.ar    1  UNL1        0.0031
     15 C         137.8108  144.0615  164.5412 C.ar    1  UNL1        0.0016
     16 C         139.1140  143.9977  165.2810 C.ar    1  UNL1        0.0191
     17 C         140.3677  143.6014  164.5590 C.ar    1  UNL1        0.0810
     18 N         141.6710  143.5377  165.2989 N.ar    1  UNL1       -0.2497
     19 C         139.1060  139.8529  157.2270 C.3     1  UNL1        0.0666
     20 C         139.6391  138.7249  158.0599 C.3     1  UNL1        0.0294
     21 C         141.1118  138.6185  158.3238 C.3     1  UNL1        0.0730
     22 N         141.6396  138.8029  159.7158 N.3     1  UNL1       -0.2720
     23 C         143.1332  138.7810  159.8536 C.3     1  UNL1        0.0768
     24 C         143.9601  138.9357  161.0956 C.3     1  UNL1        0.0434
     25 C         143.4977  139.1503  162.5062 C.ar    1  UNL1       -0.0241
     26 C         144.6566  139.2535  163.4531 C.ar    1  UNL1       -0.0030
     27 C         144.4120  139.4697  164.9171 C.ar    1  UNL1        0.0193
     28 C         143.0085  139.5828  165.4344 C.ar    1  UNL1        0.0871
     29 N         142.4617  139.7955  166.8148 N.ar    1  UNL1       -0.2427
     30 C         140.9648  139.8238  166.7213 C.ar    1  UNL1        0.0886
     31 C         140.0133  140.0139  167.8651 C.3     1  UNL1        0.0594
     32 S         140.5866  139.6286  165.2829 S.2     1  UNL1       -0.0711
     33 C         141.8496  139.4796  164.4876 C.ar    1  UNL1        0.0439
     34 C         142.0942  139.2634  163.0235 C.ar    1  UNL1       -0.0172
     35 C         140.8065  139.1897  162.2578 C.3     1  UNL1        0.0439
     36 C         140.6043  138.9848  160.7857 C.3     1  UNL1        0.0768
@<TRIPOS>BOND
     1     8     9    1
     2     9    10   ar
     3    10    11   ar
     4    11    12   ar
     5    12    13   ar
     6    13     2    1
     7     2     3   ar
     8     3     4   ar
     9     4     5   ar
    10     5     1    1
    11     1    19    1
    12    19    20    1
    13    20    21    1
    14    21    22    1
    15    22    23    1
    16    23    24    1
    17    24    25    1
    18    25    26   ar
    19    26    27   ar
    20    27    28   ar
    21    28    29   ar
    22    29    30   ar
    23    30    31    1
    24    30    32   ar
    25    32    33   ar
    26    33    34   ar
    27    34    35    1
    28    35    36    1
    29     5     6   ar
    30     6     7    1
    31    13    14   ar
    32    14    15   ar
    33    15    16   ar
    34    16    17   ar
    35    17    18   ar
    36    18     9   ar
    37    17    12   ar
    38     6     2   ar
    39    36    22    1
    40    34    25   ar
    41    33    28   ar
@<TRIPOS>MOLECULE
*****
 36 41 0 0 0
SMALL
GASTEIGER

@<TRIPOS>ATOM
      1 S         139.2124  143.2436  157.9436 S.3     1  UNL1       -0.0756
      2 C         139.4362  140.8872  161.0197 C.ar    1  UNL1        0.1669
      3 N         138.4164  141.8817  161.4900 N.ar    1  UNL1       -0.1282
      4 N         138.2085  142.8854  160.3949 N.ar    1  UNL1       -0.1221
      5 C         139.0997  142.5113  159.2478 C.ar    1  UNL1        0.1932
      6 N         139.8585  141.2764  159.6340 N.ar    1  UNL1       -0.2884
      7 C         140.8632  140.5568  158.7838 C.3     1  UNL1        0.1340
      8 C         137.8503  138.6342  167.3174 C.3     1  UNL1        0.0521
      9 C         138.3738  138.9033  165.9376 C.ar    1  UNL1        0.0593
     10 C         137.8656  140.0802  165.1589 C.ar    1  UNL1        0.0147
     11 C         138.3891  140.3492  163.7792 C.ar    1  UNL1        0.0028
     12 C         139.4209  139.4413  163.1782 C.ar    1  UNL1        0.0206
     13 C         139.9444  139.7103  161.7985 C.ar    1  UNL1        0.0374
     14 C         140.9761  138.8023  161.1976 C.ar    1  UNL1        0.0031
     15 C         141.4843  137.6253  161.9764 C.ar    1  UNL1        0.0016
     16 C         140.9608  137.3563  163.3560 C.ar    1  UNL1        0.0191
     17 C         139.9291  138.2643  163.9570 C.ar    1  UNL1        0.0810
     18 N         139.4056  137.9953  165.3367 N.ar    1  UNL1       -0.2497
     19 C         140.2000  144.3628  157.7949 C.3     1  UNL1        0.0666
     20 C         140.3432  145.3861  158.8823 C.3     1  UNL1        0.0294
     21 C         141.5047  145.3170  159.8289 C.3     1  UNL1        0.0730
     22 N         141.3558  144.6210  161.1492 N.3     1  UNL1       -0.2720
     23 C         140.3673  145.2308  162.0985 C.3     1  UNL1        0.0768
     24 C         139.9939  144.7773  163.4788 C.3     1  UNL1        0.0434
     25 C         140.5168  143.6023  164.2505 C.ar    1  UNL1       -0.0241
     26 C         139.8751  143.5055  165.6030 C.ar    1  UNL1       -0.0030
     27 C         140.2588  142.3967  166.5375 C.ar    1  UNL1        0.0193
     28 C         141.2841  141.3847  166.1198 C.ar    1  UNL1        0.0871
     29 N         141.8595  140.1903  166.8214 N.ar    1  UNL1       -0.2427
     30 C         142.8568  139.5489  165.9027 C.ar    1  UNL1        0.0886
     31 C         143.6703  138.3245  166.2010 C.3     1  UNL1        0.0594
     32 S         142.8978  140.3469  164.6332 S.2     1  UNL1       -0.0711
     33 C         141.9258  141.4815  164.7674 C.ar    1  UNL1        0.0439
     34 C         141.5421  142.5903  163.8328 C.ar    1  UNL1       -0.0172
     35 C         142.2979  142.5035  162.5400 C.3     1  UNL1        0.0439
     36 C         142.2149  143.4073  161.3457 C.3     1  UNL1        0.0768
@<TRIPOS>BOND
     1     8     9    1
     2     9    10   ar
     3    10    11   ar
     4    11    12   ar
     5    12    13   ar
     6    13     2    1
     7     2     3   ar
     8     3     4   ar
     9     4     5   ar
    10     5     1    1
    11     1    19    1
    12    19    20    1
    13    20    21    1
    14    21    22    1
    15    22    23    1
    16    23    24    1
    17    24    25    1
    18    25    26   ar
    19    26    27   ar
    20    27    28   ar
    21    28    29   ar
    22    29    30   ar
    23    30    31    1
    24    30    32   ar
    25    32    33   ar
    26    33    34   ar
    27    34    35    1
    28    35    36    1
    29     5     6   ar
    30     6     7    1
    31    13    14   ar
    32    14    15   ar
    33    15    16   ar
    34    16    17   ar
    35    17    18   ar
    36    18     9   ar
    37    17    12   ar
    38     6     2   ar
    39    36    22    1
    40    34    25   ar
    41    33    28   ar
@<TRIPOS>MOLECULE
*****
 36 41 0 0 0
SMALL
GASTEIGER

@<TRIPOS>ATOM
      1 S         140.4683  144.5334  158.2672 S.3     1  UNL1       -0.0756
      2 C         142.8525  143.6471  161.1990 C.ar    1  UNL1        0.1669
      3 N         143.6362  143.1401  160.0246 N.ar    1  UNL1       -0.1282
      4 N         142.8384  143.4104  158.7835 N.ar    1  UNL1       -0.1221
      5 C         141.5617  144.0845  159.1907 C.ar    1  UNL1        0.1932
      6 N         141.5705  144.2307  160.6835 N.ar    1  UNL1       -0.2884
      7 C         140.4874  144.8516  161.5150 C.3     1  UNL1        0.1340
      8 C         143.1413  138.3494  165.5695 C.3     1  UNL1        0.0521
      9 C         143.1751  139.6575  164.8362 C.ar    1  UNL1        0.0593
     10 C         142.7510  139.7227  163.3988 C.ar    1  UNL1        0.0147
     11 C         142.7849  141.0308  162.6656 C.ar    1  UNL1        0.0028
     12 C         143.2427  142.2737  163.3696 C.ar    1  UNL1        0.0206
     13 C         143.2765  143.5818  162.6362 C.ar    1  UNL1        0.0374
     14 C         143.7344  144.8246  163.3404 C.ar    1  UNL1        0.0031
     15 C         144.1584  144.7594  164.7777 C.ar    1  UNL1        0.0016
     16 C         144.1246  143.4514  165.5109 C.ar    1  UNL1        0.0191
     17 C         143.6668  142.2085  164.8069 C.ar    1  UNL1        0.0810
     18 N         143.6329  140.9004  165.5403 N.ar    1  UNL1       -0.2497
     19 C         139.5585  143.5224  157.6348 C.3     1  UNL1        0.0666
     20 C         138.4720  142.8802  158.4456 C.3     1  UNL1        0.0294
     21 C         138.4593  141.3927  158.6380 C.3     1  UNL1        0.0730
     22 N         138.6480  140.8120  160.0081 N.3     1  UNL1       -0.2720
     23 C         138.4709  139.3262  160.1152 C.3     1  UNL1        0.0768
     24 C         138.5909  138.4553  161.3306 C.3     1  UNL1        0.0434
     25 C         138.9177  138.8549  162.7389 C.ar    1  UNL1       -0.0241
     26 C         138.9374  137.6673  163.6550 C.ar    1  UNL1       -0.0030
     27 C         139.2445  137.8489  165.1119 C.ar    1  UNL1        0.0193
     28 C         139.5320  139.2182  165.6528 C.ar    1  UNL1        0.0871
     29 N         139.8645  139.7027  167.0329 N.ar    1  UNL1       -0.2427
     30 C         140.0504  141.1899  166.9697 C.ar    1  UNL1        0.0886
     31 C         140.3937  142.0853  168.1231 C.3     1  UNL1        0.0594
     32 S         139.8327  141.6244  165.5506 S.2     1  UNL1       -0.0711
     33 C         139.5123  140.4058  164.7367 C.ar    1  UNL1        0.0439
     34 C         139.2051  140.2242  163.2798 C.ar    1  UNL1       -0.0172
     35 C         139.2368  141.5320  162.5459 C.3     1  UNL1        0.0439
     36 C         138.9888  141.7935  161.0898 C.3     1  UNL1        0.0768
@<TRIPOS>BOND
     1     8     9    1
     2     9    10   ar
     3    10    11   ar
     4    11    12   ar
     5    12    13   ar
     6    13     2    1
     7     2     3   ar
     8     3     4   ar
     9     4     5   ar
    10     5     1    1
    11     1    19    1
    12    19    20    1
    13    20    21    1
    14    21    22    1
    15    22    23    1
    16    23    24    1
    17    24    25    1
    18    25    26   ar
    19    26    27   ar
    20    27    28   ar
    21    28    29   ar
    22    29    30   ar
    23    30    31    1
    24    30    32   ar
    25    32    33   ar
    26    33    34   ar
    27    34    35    1
    28    35    36    1
    29     5     6   ar
    30     6     7    1
    31    13    14   ar
    32    14    15   ar
    33    15    16   ar
    34    16    17   ar
    35    17    18   ar
    36    18     9   ar
    37    17    12   ar
    38     6     2   ar
    39    36    22    1
    40    34    25   ar
    41    33    28   ar
@<TRIPOS>MOLECULE
*****
 36 41 0 0 0
SMALL
GASTEIGER

@<TRIPOS>ATOM
      1 S         143.3478  143.1140  158.6966 S.3     1  UNL1       -0.0756
      2 C         143.0232  141.6214  162.2648 C.ar    1  UNL1        0.1669
      3 N         143.3577  143.0499  162.5775 N.ar    1  UNL1       -0.1282
      4 N         143.5200  143.7828  161.2788 N.ar    1  UNL1       -0.1221
      5 C         143.2858  142.8074  160.1636 C.ar    1  UNL1        0.1932
      6 N         142.9787  141.4716  160.7730 N.ar    1  UNL1       -0.2884
      7 C         142.6797  140.2078  160.0223 C.3     1  UNL1        0.1340
      8 C         143.0307  141.7520  169.1375 C.3     1  UNL1        0.0521
      9 C         142.9672  141.4475  167.6701 C.ar    1  UNL1        0.0593
     10 C         143.2139  142.5351  166.6670 C.ar    1  UNL1        0.0147
     11 C         143.1503  142.2305  165.1996 C.ar    1  UNL1        0.0028
     12 C         142.8400  140.8383  164.7353 C.ar    1  UNL1        0.0206
     13 C         142.7764  140.5338  163.2678 C.ar    1  UNL1        0.0374
     14 C         142.4661  139.1417  162.8037 C.ar    1  UNL1        0.0031
     15 C         142.2193  138.0540  163.8067 C.ar    1  UNL1        0.0016
     16 C         142.2829  138.3586  165.2740 C.ar    1  UNL1        0.0191
     17 C         142.5932  139.7507  165.7384 C.ar    1  UNL1        0.0810
     18 N         142.6568  140.0552  167.2058 N.ar    1  UNL1       -0.2497
     19 C         142.5376  144.2429  158.1315 C.3     1  UNL1        0.0666
     20 C         141.1035  144.0203  157.7522 C.3     1  UNL1        0.0294
     21 C         140.0057  144.5659  158.6166 C.3     1  UNL1        0.0730
     22 N         139.9150  144.1613  160.0582 N.3     1  UNL1       -0.2720
     23 C         140.1802  145.2485  161.0571 C.3     1  UNL1        0.0768
     24 C         140.1669  145.1660  162.5549 C.3     1  UNL1        0.0434
     25 C         139.8853  143.9760  163.4234 C.ar    1  UNL1       -0.0241
     26 C         139.9757  144.3264  164.8792 C.ar    1  UNL1       -0.0030
     27 C         139.7281  143.2754  165.9204 C.ar    1  UNL1        0.0193
     28 C         139.3901  141.8740  165.5059 C.ar    1  UNL1        0.0871
     29 N         139.0965  140.6357  166.2999 N.ar    1  UNL1       -0.2427
     30 C         138.8246  139.5199  165.3349 C.ar    1  UNL1        0.0886
     31 C         138.4866  138.1040  165.6966 C.3     1  UNL1        0.0594
     32 S         138.9502  140.0687  163.9445 S.2     1  UNL1       -0.0711
     33 C         139.2997  141.5236  164.0502 C.ar    1  UNL1        0.0439
     34 C         139.5473  142.5746  163.0090 C.ar    1  UNL1       -0.0172
     35 C         139.4075  142.0171  161.6235 C.3     1  UNL1        0.0439
     36 C         139.5711  142.7233  160.3103 C.3     1  UNL1        0.0768
@<TRIPOS>BOND
     1     8     9    1
     2     9    10   ar
     3    10    11   ar
     4    11    12   ar
     5    12    13   ar
     6    13     2    1
     7     2     3   ar
     8     3     4   ar
     9     4     5   ar
    10     5     1    1
    11     1    19    1
    12    19    20    1
    13    20    21    1
    14    21    22    1
    15    22    23    1
    16    23    24    1
    17    24    25    1
    18    25    26   ar
    19    26    27   ar
    20    27    28   ar
    21    28    29   ar
    22    29    30   ar
    23    30    31    1
    24    30    32   ar
    25    32    33   ar
    26    33    34   ar
    27    34    35    1
    28    35    36    1
    29     5     6   ar
    30     6     7    1
    31    13    14   ar
    32    14    15   ar
    33    15    16   ar
    34    16    17   ar
    35    17    18   ar
    36    18     9   ar
    37    17    12   ar
    38     6     2   ar
    39    36    22    1
    40    34    25   ar
    41    33    28   ar
@<TRIPOS>MOLECULE
*****
 36 41 0 0 0
SMALL
GASTEIGER

@<TRIPOS>ATOM
      1 S         142.9583  140.1738  158.3398 S.3     1  UNL1       -0.0756
      2 C         143.2623  137.3710  155.6720 C.ar    1  UNL1        0.1669
      3 N         144.5618  138.0955  155.4807 N.ar    1  UNL1       -0.1282
      4 N         144.6060  139.2336  156.4567 N.ar    1  UNL1       -0.1221
      5 C         143.3339  139.2125  157.2513 C.ar    1  UNL1        0.1932
      6 N         142.5035  138.0614  156.7663 N.ar    1  UNL1       -0.2884
      7 C         141.1516  137.6694  157.2846 C.3     1  UNL1        0.1340
      8 C         143.3846  130.6891  157.2806 C.3     1  UNL1        0.0521
      9 C         143.2391  132.0587  156.6865 C.ar    1  UNL1        0.0593
     10 C         143.6990  133.2623  157.4546 C.ar    1  UNL1        0.0147
     11 C         143.5534  134.6318  156.8604 C.ar    1  UNL1        0.0028
     12 C         142.9480  134.7979  155.4981 C.ar    1  UNL1        0.0206
     13 C         142.8025  136.1675  154.9039 C.ar    1  UNL1        0.0374
     14 C         142.1971  136.3335  153.5416 C.ar    1  UNL1        0.0031
     15 C         141.7372  135.1299  152.7734 C.ar    1  UNL1        0.0016
     16 C         141.8828  133.7604  153.3676 C.ar    1  UNL1        0.0191
     17 C         142.4882  133.5944  154.7299 C.ar    1  UNL1        0.0810
     18 N         142.6337  132.2247  155.3241 N.ar    1  UNL1       -0.2497
     19 C         143.2616  139.8421  159.7708 C.3     1  UNL1        0.0666
     20 C         143.3649  138.4094  160.2030 C.3     1  UNL1        0.0294
     21 C         143.7096  138.0778  161.6247 C.3     1  UNL1        0.0730
     22 N         142.6850  138.2554  162.7058 N.3     1  UNL1       -0.2720
     23 C         141.3357  137.6622  162.4274 C.3     1  UNL1        0.0768
     24 C         140.1133  137.6699  163.2968 C.3     1  UNL1        0.0434
     25 C         139.9384  138.2724  164.6592 C.ar    1  UNL1       -0.0241
     26 C         138.5490  138.0543  165.1807 C.ar    1  UNL1       -0.0030
     27 C         138.1638  138.5800  166.5317 C.ar    1  UNL1        0.0193
     28 C         139.1680  139.3239  167.3613 C.ar    1  UNL1        0.0871
     29 N         139.0786  139.9536  168.7198 N.ar    1  UNL1       -0.2427
     30 C         140.4128  140.5609  169.0379 C.ar    1  UNL1        0.0886
     31 C         140.7702  141.2938  170.2968 C.3     1  UNL1        0.0594
     32 S         141.3268  140.3065  167.8760 S.2     1  UNL1       -0.0711
     33 C         140.5575  139.5420  166.8398 C.ar    1  UNL1        0.0439
     34 C         140.9427  139.0163  165.4888 C.ar    1  UNL1       -0.0172
     35 C         142.3698  139.3413  165.1608 C.3     1  UNL1        0.0439
     36 C         143.1452  139.0026  163.9222 C.3     1  UNL1        0.0768
@<TRIPOS>BOND
     1     8     9    1
     2     9    10   ar
     3    10    11   ar
     4    11    12   ar
     5    12    13   ar
     6    13     2    1
     7     2     3   ar
     8     3     4   ar
     9     4     5   ar
    10     5     1    1
    11     1    19    1
    12    19    20    1
    13    20    21    1
    14    21    22    1
    15    22    23    1
    16    23    24    1
    17    24    25    1
    18    25    26   ar
    19    26    27   ar
    20    27    28   ar
    21    28    29   ar
    22    29    30   ar
    23    30    31    1
    24    30    32   ar
    25    32    33   ar
    26    33    34   ar
    27    34    35    1
    28    35    36    1
    29     5     6   ar
    30     6     7    1
    31    13    14   ar
    32    14    15   ar
    33    15    16   ar
    34    16    17   ar
    35    17    18   ar
    36    18     9   ar
    37    17    12   ar
    38     6     2   ar
    39    36    22    1
    40    34    25   ar
    41    33    28   ar
