@<TRIPOS>MOLECULE
*****
 35 38 0 0 0
SMALL
GASTEIGER

@<TRIPOS>ATOM
      1 N         139.3121  145.1207  164.3540 N.3     1  UNL1       -0.3162
      2 C         139.5743  144.2972  163.1281 C.3     1  UNL1        0.1166
      3 C         139.7277  143.0955  162.2435 C.3     1  UNL1        0.0739
      4 C         140.1031  143.2686  160.8017 C.3     1  UNL1        0.2039
      5 N         140.3251  144.6435  160.2443 N.pl3   1  UNL1       -0.1931
      6 C         140.1716  145.8452  161.1288 C.3     1  UNL1        0.2039
      7 C         139.7962  145.6720  162.5707 C.3     1  UNL1        0.0739
      8 H         139.0786  144.5055  165.1334 H       1  UNL1        0.1192
      9 H         138.5338  145.7557  164.1770 H       1  UNL1        0.1192
     10 C         140.7005  144.8166  158.8023 C.2     1  UNL1        0.3205
     11 N         141.8380  145.7193  158.4266 N.2     1  UNL1        0.0097
     12 C         142.2134  145.8924  156.9848 C.2     1  UNL1        0.4717
     13 N         141.4513  145.1628  155.9185 N.2     1  UNL1        0.0158
     14 C         140.3137  144.2601  156.2942 C.2     1  UNL1        0.3714
     15 N         139.3866  143.4174  155.4694 N.2     1  UNL1       -0.0339
     16 C         138.4383  142.7234  156.4016 C.2     1  UNL1        0.2323
     17 C         138.7792  143.1373  157.8025 C.2     1  UNL1        0.0486
     18 C         139.9383  144.0870  157.7361 C.3     1  UNL1        0.2428
     19 C         139.2613  143.2084  164.1112 C.2     1  UNL1        0.2352
     20 O         137.8981  143.1273  164.7318 O.2     1  UNL1       -0.2737
     21 N         140.3116  142.2006  164.4736 N.am    1  UNL1       -0.3012
     22 H         141.2063  142.2539  164.0663 H       1  UNL1        0.1497
     23 C         139.9986  141.1117  165.4567 C.3     1  UNL1        0.0942
     24 C         140.1024  141.3782  166.9292 C.ar    1  UNL1       -0.0045
     25 C         139.7348  140.3071  167.9129 C.ar    1  UNL1       -0.0018
     26 C         139.8386  140.5735  169.3854 C.ar    1  UNL1        0.0111
     27 C         140.3100  141.9110  169.8741 C.ar    1  UNL1        0.0577
     28 CL        140.4138  142.1774  171.3467 Cl      1  UNL1       -0.0822
     29 C         140.6776  142.9821  168.8905 C.ar    1  UNL1        0.0111
     30 C         140.5739  142.7157  167.4179 C.ar    1  UNL1       -0.0018
     31 C         139.5819  139.7565  164.9672 C.3     1  UNL1        0.0267
     32 C         138.1861  139.5375  164.4634 C.3     1  UNL1        0.0338
     33 C         137.7962  140.0244  163.0992 C.3     1  UNL1        0.1372
     34 O         136.7490  141.0884  162.9536 O.3     1  UNL1       -0.3820
     35 H         135.8935  140.7431  163.2535 H       1  UNL1        0.2104
@<TRIPOS>BOND
     1     1     2    1
     2     2    19    1
     3    19    20    2
     4    19    21   am
     5    21    23    1
     6    23    31    1
     7    31    32    1
     8    32    33    1
     9    33    34    1
    10    23    24    1
    11    24    25   ar
    12    25    26   ar
    13    26    27   ar
    14    27    28    1
    15    27    29   ar
    16    29    30   ar
    17     2     3    1
    18     3     4    1
    19     4     5    1
    20     5    10    1
    21    10    11    2
    22    11    12    1
    23    12    13    2
    24    13    14    1
    25    14    15    2
    26    15    16    1
    27    16    17    2
    28    17    18    1
    29     5     6    1
    30     6     7    1
    31     7     2    1
    32    30    24   ar
    33    18    10    1
    34    18    14    1
    35     1     8    1
    36     1     9    1
    37    21    22    1
    38    34    35    1
@<TRIPOS>MOLECULE
*****
 35 38 0 0 0
SMALL
GASTEIGER

@<TRIPOS>ATOM
      1 N         139.4526  145.2389  164.2315 N.3     1  UNL1       -0.3162
      2 C         139.6105  144.3087  163.0655 C.3     1  UNL1        0.1166
      3 C         139.5881  143.0453  162.2570 C.3     1  UNL1        0.0739
      4 C         140.0298  143.0642  160.8237 C.3     1  UNL1        0.2039
      5 N         140.4939  144.3465  160.1987 N.pl3   1  UNL1       -0.1931
      6 C         140.5163  145.6098  161.0071 C.3     1  UNL1        0.2039
      7 C         140.0745  145.5909  162.4405 C.3     1  UNL1        0.0739
      8 H         139.0969  144.7202  165.0345 H       1  UNL1        0.1192
      9 H         138.7964  145.9808  163.9881 H       1  UNL1        0.1192
     10 C         140.9356  144.3654  158.7653 C.2     1  UNL1        0.3205
     11 N         140.1010  145.0628  157.7324 N.2     1  UNL1        0.0097
     12 C         140.5426  145.0817  156.2991 C.2     1  UNL1        0.4717
     13 N         141.8190  144.4031  155.8986 N.2     1  UNL1        0.0158
     14 C         142.6537  143.7056  156.9315 C.2     1  UNL1        0.3714
     15 N         143.9493  142.9559  156.8357 N.2     1  UNL1       -0.0339
     16 C         144.3084  142.4736  158.2100 C.2     1  UNL1        0.2323
     17 C         143.2346  142.9253  159.1550 C.2     1  UNL1        0.0486
     18 C         142.2120  143.6868  158.3648 C.3     1  UNL1        0.2428
     19 C         139.0916  143.3495  164.0953 C.2     1  UNL1        0.2352
     20 O         137.7214  143.5403  164.6752 O.2     1  UNL1       -0.2737
     21 N         139.9429  142.1994  164.5453 N.am    1  UNL1       -0.3012
     22 H         140.8422  142.0741  164.1647 H       1  UNL1        0.1497
     23 C         139.4241  141.2401  165.5752 C.3     1  UNL1        0.0942
     24 C         139.8735  141.3557  167.0016 C.ar    1  UNL1       -0.0045
     25 C         139.6383  140.2228  167.9562 C.ar    1  UNL1       -0.0018
     26 C         140.0877  140.3384  169.3826 C.ar    1  UNL1        0.0111
     27 C         140.7722  141.5869  169.8544 C.ar    1  UNL1        0.0577
     28 CL        141.2216  141.7025  171.2809 Cl      1  UNL1       -0.0822
     29 C         141.0074  142.7198  168.8999 C.ar    1  UNL1        0.0111
     30 C         140.5581  142.6042  167.4734 C.ar    1  UNL1       -0.0018
     31 C         138.4559  140.1652  165.1786 C.3     1  UNL1        0.0267
     32 C         138.5119  139.5769  163.7999 C.3     1  UNL1        0.0338
     33 C         137.6585  140.1471  162.7060 C.3     1  UNL1        0.1372
     34 O         136.6442  141.2063  163.0210 O.3     1  UNL1       -0.3820
     35 H         135.9522  140.8326  163.5888 H       1  UNL1        0.2104
@<TRIPOS>BOND
     1     1     2    1
     2     2    19    1
     3    19    20    2
     4    19    21   am
     5    21    23    1
     6    23    31    1
     7    31    32    1
     8    32    33    1
     9    33    34    1
    10    23    24    1
    11    24    25   ar
    12    25    26   ar
    13    26    27   ar
    14    27    28    1
    15    27    29   ar
    16    29    30   ar
    17     2     3    1
    18     3     4    1
    19     4     5    1
    20     5    10    1
    21    10    11    2
    22    11    12    1
    23    12    13    2
    24    13    14    1
    25    14    15    2
    26    15    16    1
    27    16    17    2
    28    17    18    1
    29     5     6    1
    30     6     7    1
    31     7     2    1
    32    30    24   ar
    33    18    10    1
    34    18    14    1
    35     1     8    1
    36     1     9    1
    37    21    22    1
    38    34    35    1
@<TRIPOS>MOLECULE
*****
 35 38 0 0 0
SMALL
GASTEIGER

@<TRIPOS>ATOM
      1 N         141.1858  145.5536  164.0477 N.3     1  UNL1       -0.3162
      2 C         141.5752  144.9596  162.7266 C.3     1  UNL1        0.1166
      3 C         142.3333  144.1586  161.7097 C.3     1  UNL1        0.0739
      4 C         141.8946  144.1597  160.2754 C.3     1  UNL1        0.2039
      5 N         140.6978  144.9618  159.8577 N.pl3   1  UNL1       -0.1931
      6 C         139.9397  145.7628  160.8745 C.3     1  UNL1        0.2039
      7 C         140.3785  145.7616  162.3089 C.3     1  UNL1        0.0739
      8 H         141.8326  145.2333  164.7684 H       1  UNL1        0.1192
      9 H         140.2385  145.2604  164.2863 H       1  UNL1        0.1192
     10 C         140.2591  144.9629  158.4233 C.2     1  UNL1        0.3205
     11 N         140.6442  146.0985  157.5221 N.2     1  UNL1        0.0097
     12 C         140.2056  146.0996  156.0878 C.2     1  UNL1        0.4717
     13 N         139.3817  144.9652  155.5544 N.2     1  UNL1        0.0158
     14 C         138.9966  143.8296  156.4556 C.2     1  UNL1        0.3714
     15 N         138.1973  142.5835  156.2144 N.2     1  UNL1       -0.0339
     16 C         138.1419  141.8122  157.4997 C.2     1  UNL1        0.2323
     17 C         138.9071  142.5817  158.5353 C.2     1  UNL1        0.0486
     18 C         139.4353  143.8285  157.8901 C.3     1  UNL1        0.2428
     19 C         142.6368  144.3638  163.6030 C.2     1  UNL1        0.2352
     20 O         143.7662  145.2172  164.0988 O.2     1  UNL1       -0.2737
     21 N         142.5687  142.9144  163.9836 N.am    1  UNL1       -0.3012
     22 H         141.8274  142.3543  163.6581 H       1  UNL1        0.1497
     23 C         143.6303  142.3185  164.8600 C.3     1  UNL1        0.0942
     24 C         143.2446  141.5635  166.0973 C.ar    1  UNL1       -0.0045
     25 C         143.1388  142.2801  167.4109 C.ar    1  UNL1       -0.0018
     26 C         142.7531  141.5250  168.6482 C.ar    1  UNL1        0.0111
     27 C         142.4733  140.0533  168.5721 C.ar    1  UNL1        0.0577
     28 CL        142.0876  139.2982  169.8095 Cl      1  UNL1       -0.0822
     29 C         142.5791  139.3367  167.2586 C.ar    1  UNL1        0.0111
     30 C         142.9648  140.0918  166.0212 C.ar    1  UNL1       -0.0018
     31 C         145.0775  142.4778  164.4990 C.3     1  UNL1        0.0267
     32 C         145.7413  141.4756  163.6017 C.3     1  UNL1        0.0338
     33 C         144.9164  140.6522  162.6574 C.3     1  UNL1        0.1372
     34 O         144.7517  139.1801  162.8938 O.3     1  UNL1       -0.3820
     35 H         145.6086  138.7379  162.7888 H       1  UNL1        0.2104
@<TRIPOS>BOND
     1     1     2    1
     2     2    19    1
     3    19    20    2
     4    19    21   am
     5    21    23    1
     6    23    31    1
     7    31    32    1
     8    32    33    1
     9    33    34    1
    10    23    24    1
    11    24    25   ar
    12    25    26   ar
    13    26    27   ar
    14    27    28    1
    15    27    29   ar
    16    29    30   ar
    17     2     3    1
    18     3     4    1
    19     4     5    1
    20     5    10    1
    21    10    11    2
    22    11    12    1
    23    12    13    2
    24    13    14    1
    25    14    15    2
    26    15    16    1
    27    16    17    2
    28    17    18    1
    29     5     6    1
    30     6     7    1
    31     7     2    1
    32    30    24   ar
    33    18    10    1
    34    18    14    1
    35     1     8    1
    36     1     9    1
    37    21    22    1
    38    34    35    1
@<TRIPOS>MOLECULE
*****
 35 38 0 0 0
SMALL
GASTEIGER

@<TRIPOS>ATOM
      1 N         139.9451  144.9201  164.4765 N.3     1  UNL1       -0.3162
      2 C         140.5332  144.2382  163.2770 C.3     1  UNL1        0.1166
      3 C         141.2517  143.2147  162.4485 C.3     1  UNL1        0.0739
      4 C         141.3905  143.4114  160.9680 C.3     1  UNL1        0.2039
      5 N         140.8108  144.6316  160.3159 N.pl3   1  UNL1       -0.1931
      6 C         140.0923  145.6550  161.1443 C.3     1  UNL1        0.2039
      7 C         139.9535  145.4583  162.6249 C.3     1  UNL1        0.0739
      8 H         140.1227  144.3575  165.3086 H       1  UNL1        0.1192
      9 H         138.9390  145.0278  164.3473 H       1  UNL1        0.1192
     10 C         140.9496  144.8283  158.8353 C.2     1  UNL1        0.3205
     11 N         141.9801  145.7766  158.2980 N.2     1  UNL1        0.0097
     12 C         142.1190  145.9733  156.8176 C.2     1  UNL1        0.4717
     13 N         141.2272  145.2216  155.8742 N.2     1  UNL1        0.0158
     14 C         140.1967  144.2733  156.4114 C.2     1  UNL1        0.3714
     15 N         139.1841  143.4006  155.7309 N.2     1  UNL1       -0.0339
     16 C         138.4195  142.6646  156.7909 C.2     1  UNL1        0.2323
     17 C         138.9595  143.0824  158.1265 C.2     1  UNL1        0.0486
     18 C         140.0579  144.0766  157.8920 C.3     1  UNL1        0.2428
     19 C         140.9086  143.2549  164.3457 C.2     1  UNL1        0.2352
     20 O         142.3406  142.8415  164.5150 O.2     1  UNL1       -0.2737
     21 N         139.8521  142.6849  165.2450 N.am    1  UNL1       -0.3012
     22 H         138.9122  142.9562  165.1339 H       1  UNL1        0.1497
     23 C         140.2275  141.7015  166.3137 C.3     1  UNL1        0.0942
     24 C         140.9734  142.1642  167.5301 C.ar    1  UNL1       -0.0045
     25 C         140.2943  143.0455  168.5362 C.ar    1  UNL1       -0.0018
     26 C         141.0401  143.5081  169.7526 C.ar    1  UNL1        0.0111
     27 C         142.4651  143.0895  169.9628 C.ar    1  UNL1        0.0577
     28 CL        143.2110  143.5522  171.1793 Cl      1  UNL1       -0.0822
     29 C         143.1442  142.2083  168.9568 C.ar    1  UNL1        0.0111
     30 C         142.3983  141.7456  167.7403 C.ar    1  UNL1       -0.0018
     31 C         139.8569  140.2555  166.1660 C.3     1  UNL1        0.0267
     32 C         138.8836  139.6295  167.1203 C.3     1  UNL1        0.0338
     33 C         137.9160  138.5925  166.6320 C.3     1  UNL1        0.1372
     34 O         136.9777  137.9292  167.5961 O.3     1  UNL1       -0.3820
     35 H         137.4858  137.3937  168.2253 H       1  UNL1        0.2104
@<TRIPOS>BOND
     1     1     2    1
     2     2    19    1
     3    19    20    2
     4    19    21   am
     5    21    23    1
     6    23    31    1
     7    31    32    1
     8    32    33    1
     9    33    34    1
    10    23    24    1
    11    24    25   ar
    12    25    26   ar
    13    26    27   ar
    14    27    28    1
    15    27    29   ar
    16    29    30   ar
    17     2     3    1
    18     3     4    1
    19     4     5    1
    20     5    10    1
    21    10    11    2
    22    11    12    1
    23    12    13    2
    24    13    14    1
    25    14    15    2
    26    15    16    1
    27    16    17    2
    28    17    18    1
    29     5     6    1
    30     6     7    1
    31     7     2    1
    32    30    24   ar
    33    18    10    1
    34    18    14    1
    35     1     8    1
    36     1     9    1
    37    21    22    1
    38    34    35    1
@<TRIPOS>MOLECULE
*****
 35 38 0 0 0
SMALL
GASTEIGER

@<TRIPOS>ATOM
      1 N         138.4398  141.9498  159.5694 N.3     1  UNL1       -0.3162
      2 C         139.2178  143.1886  159.2377 C.3     1  UNL1        0.1166
      3 C         140.0673  144.4111  159.4217 C.3     1  UNL1        0.0739
      4 C         140.4407  145.2504  158.2360 C.3     1  UNL1        0.2039
      5 N         139.9644  144.8673  156.8661 N.pl3   1  UNL1       -0.1931
      6 C         139.1149  143.6448  156.6820 C.3     1  UNL1        0.2039
      7 C         138.7416  142.8055  157.8679 C.3     1  UNL1        0.0739
      8 H         138.4855  141.7784  160.5738 H       1  UNL1        0.1192
      9 H         138.8380  141.1544  159.0702 H       1  UNL1        0.1192
     10 C         140.3378  145.7066  155.6803 C.2     1  UNL1        0.3205
     11 N         141.2670  145.1601  154.6373 N.2     1  UNL1        0.0097
     12 C         141.6404  145.9994  153.4516 C.2     1  UNL1        0.4717
     13 N         141.0845  147.3853  153.3087 N.2     1  UNL1        0.0158
     14 C         140.1552  147.9318  154.3517 C.2     1  UNL1        0.3714
     15 N         139.4551  149.2522  154.4795 N.2     1  UNL1       -0.0339
     16 C         138.6491  149.2289  155.7443 C.2     1  UNL1        0.2323
     17 C         138.8510  147.8941  156.3982 C.2     1  UNL1        0.0486
     18 C         139.7819  147.0925  155.5375 C.3     1  UNL1        0.2428
     19 C         139.4238  143.1415  160.7227 C.2     1  UNL1        0.2352
     20 O         139.9054  141.8788  161.3735 O.2     1  UNL1       -0.2737
     21 N         139.1483  144.3573  161.5569 N.am    1  UNL1       -0.3012
     22 H         138.8322  145.1861  161.1298 H       1  UNL1        0.1497
     23 C         139.3543  144.3103  163.0420 C.3     1  UNL1        0.0942
     24 C         140.7368  144.1551  163.6028 C.ar    1  UNL1       -0.0045
     25 C         141.0575  142.9941  164.4969 C.ar    1  UNL1       -0.0018
     26 C         142.4400  142.8388  165.0577 C.ar    1  UNL1        0.0111
     27 C         143.5018  143.8446  164.7245 C.ar    1  UNL1        0.0577
     28 CL        144.8844  143.6893  165.2853 Cl      1  UNL1       -0.0822
     29 C         143.1812  145.0055  163.8304 C.ar    1  UNL1        0.0111
     30 C         141.7986  145.1608  163.2696 C.ar    1  UNL1       -0.0018
     31 C         138.1778  144.4186  163.9662 C.3     1  UNL1        0.0267
     32 C         137.5476  143.1781  164.5265 C.3     1  UNL1        0.0338
     33 C         137.6983  141.8701  163.8079 C.3     1  UNL1        0.1372
     34 O         136.6001  141.3744  162.9145 O.3     1  UNL1       -0.3820
     35 H         135.8139  141.1772  163.4475 H       1  UNL1        0.2104
@<TRIPOS>BOND
     1     1     2    1
     2     2    19    1
     3    19    20    2
     4    19    21   am
     5    21    23    1
     6    23    31    1
     7    31    32    1
     8    32    33    1
     9    33    34    1
    10    23    24    1
    11    24    25   ar
    12    25    26   ar
    13    26    27   ar
    14    27    28    1
    15    27    29   ar
    16    29    30   ar
    17     2     3    1
    18     3     4    1
    19     4     5    1
    20     5    10    1
    21    10    11    2
    22    11    12    1
    23    12    13    2
    24    13    14    1
    25    14    15    2
    26    15    16    1
    27    16    17    2
    28    17    18    1
    29     5     6    1
    30     6     7    1
    31     7     2    1
    32    30    24   ar
    33    18    10    1
    34    18    14    1
    35     1     8    1
    36     1     9    1
    37    21    22    1
    38    34    35    1
@<TRIPOS>MOLECULE
*****
 35 38 0 0 0
SMALL
GASTEIGER

@<TRIPOS>ATOM
      1 N         141.0032  145.5508  163.1116 N.3     1  UNL1       -0.3162
      2 C         141.0140  144.0643  163.3118 C.3     1  UNL1        0.1166
      3 C         141.3206  142.6136  163.0849 C.3     1  UNL1        0.0739
      4 C         140.7715  141.5760  164.0186 C.3     1  UNL1        0.2039
      5 N         139.9158  141.9891  165.1793 N.pl3   1  UNL1       -0.1931
      6 C         139.6092  143.4397  165.4063 C.3     1  UNL1        0.2039
      7 C         140.1583  144.4773  164.4726 C.3     1  UNL1        0.0739
      8 H         141.5566  145.7869  162.2879 H       1  UNL1        0.1192
      9 H         141.4025  146.0073  163.9317 H       1  UNL1        0.1192
     10 C         139.3668  140.9514  166.1131 C.2     1  UNL1        0.3205
     11 N         138.3380  139.9740  165.6268 N.2     1  UNL1        0.0097
     12 C         137.7890  138.9364  166.5605 C.2     1  UNL1        0.4717
     13 N         138.2687  138.8760  167.9805 N.2     1  UNL1        0.0158
     14 C         139.2975  139.8534  168.4667 C.2     1  UNL1        0.3714
     15 N         139.9560  140.0363  169.8019 N.2     1  UNL1       -0.0339
     16 C         140.9121  141.1869  169.6934 C.2     1  UNL1        0.2323
     17 C         140.8444  141.7153  168.2911 C.2     1  UNL1        0.0486
     18 C         139.8465  140.8911  167.5330 C.3     1  UNL1        0.2428
     19 C         141.8659  144.1675  162.0816 C.2     1  UNL1        0.2352
     20 O         143.1373  144.9628  162.1142 O.2     1  UNL1       -0.2737
     21 N         141.4463  143.4753  160.8187 N.am    1  UNL1       -0.3012
     22 H         140.6118  142.9533  160.7973 H       1  UNL1        0.1497
     23 C         142.2982  143.5784  159.5884 C.3     1  UNL1        0.0942
     24 C         141.8484  144.4231  158.4333 C.ar    1  UNL1       -0.0045
     25 C         140.6757  145.3452  158.5903 C.ar    1  UNL1       -0.0018
     26 C         140.2259  146.1899  157.4353 C.ar    1  UNL1        0.0111
     27 C         140.9489  146.1125  156.1233 C.ar    1  UNL1        0.0577
     28 CL        140.4990  146.9573  154.9682 Cl      1  UNL1       -0.0822
     29 C         142.1215  145.1905  155.9662 C.ar    1  UNL1        0.0111
     30 C         142.5713  144.3457  157.1213 C.ar    1  UNL1       -0.0018
     31 C         143.5999  142.8368  159.5132 C.3     1  UNL1        0.0267
     32 C         143.8015  141.5915  160.3248 C.3     1  UNL1        0.0338
     33 C         144.6260  141.6377  161.5770 C.3     1  UNL1        0.1372
     34 O         145.2557  142.9274  162.0131 O.3     1  UNL1       -0.3820
     35 H         145.9276  143.1941  161.3663 H       1  UNL1        0.2104
@<TRIPOS>BOND
     1     1     2    1
     2     2    19    1
     3    19    20    2
     4    19    21   am
     5    21    23    1
     6    23    31    1
     7    31    32    1
     8    32    33    1
     9    33    34    1
    10    23    24    1
    11    24    25   ar
    12    25    26   ar
    13    26    27   ar
    14    27    28    1
    15    27    29   ar
    16    29    30   ar
    17     2     3    1
    18     3     4    1
    19     4     5    1
    20     5    10    1
    21    10    11    2
    22    11    12    1
    23    12    13    2
    24    13    14    1
    25    14    15    2
    26    15    16    1
    27    16    17    2
    28    17    18    1
    29     5     6    1
    30     6     7    1
    31     7     2    1
    32    30    24   ar
    33    18    10    1
    34    18    14    1
    35     1     8    1
    36     1     9    1
    37    21    22    1
    38    34    35    1
@<TRIPOS>MOLECULE
*****
 35 38 0 0 0
SMALL
GASTEIGER

@<TRIPOS>ATOM
      1 N         142.3813  138.0830  163.0236 N.3     1  UNL1       -0.3162
      2 C         141.2987  138.7249  163.8396 C.3     1  UNL1        0.1166
      3 C         139.9742  139.3324  164.1956 C.3     1  UNL1        0.0739
      4 C         139.7222  139.8161  165.5929 C.3     1  UNL1        0.2039
      5 N         140.7948  139.6922  166.6343 N.pl3   1  UNL1       -0.1931
      6 C         142.1192  139.0848  166.2784 C.3     1  UNL1        0.2039
      7 C         142.3712  138.6011  164.8810 C.3     1  UNL1        0.0739
      8 H         142.0509  137.9456  162.0684 H       1  UNL1        0.1192
      9 H         142.6253  137.1808  163.4321 H       1  UNL1        0.1192
     10 C         140.5427  140.1759  168.0316 C.2     1  UNL1        0.3205
     11 N         139.2760  139.7962  168.7397 N.2     1  UNL1        0.0097
     12 C         139.0240  140.2799  170.1370 C.2     1  UNL1        0.4717
     13 N         140.0387  141.1433  170.8263 N.2     1  UNL1        0.0158
     14 C         141.3053  141.5229  170.1183 C.2     1  UNL1        0.3714
     15 N         142.4801  142.3550  170.5398 N.2     1  UNL1       -0.0339
     16 C         143.4582  142.3855  169.4030 C.2     1  UNL1        0.2323
     17 C         142.8879  141.5724  168.2788 C.2     1  UNL1        0.0486
     18 C         141.5574  141.0393  168.7209 C.3     1  UNL1        0.2428
     19 C         140.6022  138.6258  162.5148 C.2     1  UNL1        0.2352
     20 O         139.7007  137.4622  162.2266 O.2     1  UNL1       -0.2737
     21 N         140.8072  139.6906  161.4783 N.am    1  UNL1       -0.3012
     22 H         141.3989  140.4543  161.6675 H       1  UNL1        0.1497
     23 C         140.1107  139.5916  160.1535 C.3     1  UNL1        0.0942
     24 C         140.6869  138.7348  159.0654 C.ar    1  UNL1       -0.0045
     25 C         142.1318  138.3346  159.1118 C.ar    1  UNL1       -0.0018
     26 C         142.7080  137.4779  158.0237 C.ar    1  UNL1        0.0111
     27 C         141.8393  137.0214  156.8892 C.ar    1  UNL1        0.0577
     28 CL        142.4156  136.1647  155.8010 Cl      1  UNL1       -0.0822
     29 C         140.3945  137.4216  156.8428 C.ar    1  UNL1        0.0111
     30 C         139.8182  138.2784  157.9309 C.ar    1  UNL1       -0.0018
     31 C         138.8379  140.3493  159.9169 C.3     1  UNL1        0.0267
     32 C         137.7414  140.3115  160.9397 C.3     1  UNL1        0.0338
     33 C         137.6856  141.3525  162.0182 C.3     1  UNL1        0.1372
     34 O         136.6091  141.2948  163.0612 O.3     1  UNL1       -0.3820
     35 H         135.7465  141.4464  162.6443 H       1  UNL1        0.2104
@<TRIPOS>BOND
     1     1     2    1
     2     2    19    1
     3    19    20    2
     4    19    21   am
     5    21    23    1
     6    23    31    1
     7    31    32    1
     8    32    33    1
     9    33    34    1
    10    23    24    1
    11    24    25   ar
    12    25    26   ar
    13    26    27   ar
    14    27    28    1
    15    27    29   ar
    16    29    30   ar
    17     2     3    1
    18     3     4    1
    19     4     5    1
    20     5    10    1
    21    10    11    2
    22    11    12    1
    23    12    13    2
    24    13    14    1
    25    14    15    2
    26    15    16    1
    27    16    17    2
    28    17    18    1
    29     5     6    1
    30     6     7    1
    31     7     2    1
    32    30    24   ar
    33    18    10    1
    34    18    14    1
    35     1     8    1
    36     1     9    1
    37    21    22    1
    38    34    35    1
@<TRIPOS>MOLECULE
*****
 35 38 0 0 0
SMALL
GASTEIGER

@<TRIPOS>ATOM
      1 N         138.1910  141.8258  159.0664 N.3     1  UNL1       -0.3162
      2 C         139.0291  143.0364  158.7806 C.3     1  UNL1        0.1166
      3 C         139.9306  144.2132  159.0106 C.3     1  UNL1        0.0739
      4 C         140.3588  145.0672  157.8543 C.3     1  UNL1        0.2039
      5 N         139.8857  144.7447  156.4679 N.pl3   1  UNL1       -0.1931
      6 C         138.9843  143.5680  156.2378 C.3     1  UNL1        0.2039
      7 C         138.5561  142.7139  157.3942 C.3     1  UNL1        0.0739
      8 H         138.2143  141.6245  160.0661 H       1  UNL1        0.1192
      9 H         138.5599  141.0272  158.5501 H       1  UNL1        0.1192
     10 C         140.3140  145.5988  155.3115 C.2     1  UNL1        0.3205
     11 N         141.2317  145.0393  154.2653 N.2     1  UNL1        0.0097
     12 C         141.6600  145.8933  153.1090 C.2     1  UNL1        0.4717
     13 N         141.1706  147.3070  152.9989 N.2     1  UNL1        0.0158
     14 C         140.2528  147.8665  154.0452 C.2     1  UNL1        0.3714
     15 N         139.6125  149.2139  154.2019 N.2     1  UNL1       -0.0339
     16 C         138.7885  149.1925  155.4551 C.2     1  UNL1        0.2323
     17 C         138.9195  147.8319  156.0729 C.2     1  UNL1        0.0486
     18 C         139.8245  147.0124  155.2015 C.3     1  UNL1        0.2428
     19 C         139.2112  142.9386  160.2662 C.2     1  UNL1        0.2352
     20 O         140.5773  142.7076  160.8409 O.2     1  UNL1       -0.2737
     21 N         138.0270  143.0719  161.1772 N.am    1  UNL1       -0.3012
     22 H         137.1303  143.2235  160.8001 H       1  UNL1        0.1497
     23 C         138.2090  142.9740  162.6630 C.3     1  UNL1        0.0942
     24 C         138.3317  141.6296  163.3166 C.ar    1  UNL1       -0.0045
     25 C         138.3426  140.3860  162.4778 C.ar    1  UNL1       -0.0018
     26 C         138.4654  139.0415  163.1315 C.ar    1  UNL1        0.0111
     27 C         138.5772  138.9406  164.6239 C.ar    1  UNL1        0.0577
     28 CL        138.7000  137.5960  165.2776 Cl      1  UNL1       -0.0822
     29 C         138.5664  140.1841  165.4627 C.ar    1  UNL1        0.0111
     30 C         138.4436  141.5286  164.8091 C.ar    1  UNL1       -0.0018
     31 C         138.2682  144.2208  163.4950 C.3     1  UNL1        0.0267
     32 C         139.5936  144.8443  163.8185 C.3     1  UNL1        0.0338
     33 C         140.4302  145.4379  162.7241 C.3     1  UNL1        0.1372
     34 O         140.0759  146.7788  162.1528 O.3     1  UNL1       -0.3820
     35 H         139.2243  146.7192  161.6921 H       1  UNL1        0.2104
@<TRIPOS>BOND
     1     1     2    1
     2     2    19    1
     3    19    20    2
     4    19    21   am
     5    21    23    1
     6    23    31    1
     7    31    32    1
     8    32    33    1
     9    33    34    1
    10    23    24    1
    11    24    25   ar
    12    25    26   ar
    13    26    27   ar
    14    27    28    1
    15    27    29   ar
    16    29    30   ar
    17     2     3    1
    18     3     4    1
    19     4     5    1
    20     5    10    1
    21    10    11    2
    22    11    12    1
    23    12    13    2
    24    13    14    1
    25    14    15    2
    26    15    16    1
    27    16    17    2
    28    17    18    1
    29     5     6    1
    30     6     7    1
    31     7     2    1
    32    30    24   ar
    33    18    10    1
    34    18    14    1
    35     1     8    1
    36     1     9    1
    37    21    22    1
    38    34    35    1
@<TRIPOS>MOLECULE
*****
 35 38 0 0 0
SMALL
GASTEIGER

@<TRIPOS>ATOM
      1 N         141.8091  145.4558  163.9307 N.3     1  UNL1       -0.3162
      2 C         141.7165  144.4549  162.8174 C.3     1  UNL1        0.1166
      3 C         141.9640  143.2116  162.0155 C.3     1  UNL1        0.0739
      4 C         141.2643  143.0137  160.7036 C.3     1  UNL1        0.2039
      5 N         140.3171  144.0591  160.1935 N.pl3   1  UNL1       -0.1931
      6 C         140.0696  145.3023  160.9953 C.3     1  UNL1        0.2039
      7 C         140.7693  145.5002  162.3073 C.3     1  UNL1        0.0739
      8 H         142.4572  145.1154  164.6410 H       1  UNL1        0.1192
      9 H         140.8873  145.5878  164.3468 H       1  UNL1        0.1192
     10 C         139.6174  143.8611  158.8815 C.2     1  UNL1        0.3205
     11 N         138.4878  142.8801  158.7745 N.2     1  UNL1        0.0097
     12 C         137.7881  142.6821  157.4626 C.2     1  UNL1        0.4717
     13 N         138.2181  143.4652  156.2575 N.2     1  UNL1        0.0158
     14 C         139.3477  144.4462  156.3646 C.2     1  UNL1        0.3714
     15 N         139.9878  145.3537  155.3562 N.2     1  UNL1       -0.0339
     16 C         141.0831  146.1125  156.0450 C.2     1  UNL1        0.2323
     17 C         141.1199  145.6740  157.4791 C.2     1  UNL1        0.0486
     18 C         140.0474  144.6442  157.6765 C.3     1  UNL1        0.2428
     19 C         142.6958  143.7572  163.7141 C.2     1  UNL1        0.2352
     20 O         143.8381  144.5210  164.3156 O.2     1  UNL1       -0.2737
     21 N         142.5328  142.2955  164.0092 N.am    1  UNL1       -0.3012
     22 H         141.7831  141.7942  163.6144 H       1  UNL1        0.1497
     23 C         143.5121  141.5977  164.9059 C.3     1  UNL1        0.0942
     24 C         143.1803  141.3782  166.3521 C.ar    1  UNL1       -0.0045
     25 C         142.6927  140.0372  166.8146 C.ar    1  UNL1       -0.0018
     26 C         142.3608  139.8177  168.2608 C.ar    1  UNL1        0.0111
     27 C         142.5166  140.9393  169.2446 C.ar    1  UNL1        0.0577
     28 CL        142.1847  140.7197  170.6909 Cl      1  UNL1       -0.0822
     29 C         143.0042  142.2803  168.7822 C.ar    1  UNL1        0.0111
     30 C         143.3361  142.4998  167.3359 C.ar    1  UNL1       -0.0018
     31 C         144.8233  141.1193  164.3562 C.3     1  UNL1        0.0267
     32 C         144.9628  139.7065  163.8718 C.3     1  UNL1        0.0338
     33 C         144.0485  139.1867  162.8023 C.3     1  UNL1        0.1372
     34 O         144.5689  138.2303  161.7706 O.3     1  UNL1       -0.3820
     35 H         145.2277  138.6784  161.2174 H       1  UNL1        0.2104
@<TRIPOS>BOND
     1     1     2    1
     2     2    19    1
     3    19    20    2
     4    19    21   am
     5    21    23    1
     6    23    31    1
     7    31    32    1
     8    32    33    1
     9    33    34    1
    10    23    24    1
    11    24    25   ar
    12    25    26   ar
    13    26    27   ar
    14    27    28    1
    15    27    29   ar
    16    29    30   ar
    17     2     3    1
    18     3     4    1
    19     4     5    1
    20     5    10    1
    21    10    11    2
    22    11    12    1
    23    12    13    2
    24    13    14    1
    25    14    15    2
    26    15    16    1
    27    16    17    2
    28    17    18    1
    29     5     6    1
    30     6     7    1
    31     7     2    1
    32    30    24   ar
    33    18    10    1
    34    18    14    1
    35     1     8    1
    36     1     9    1
    37    21    22    1
    38    34    35    1
