@<TRIPOS>MOLECULE
*****
 31 35 0 0 0
SMALL
GASTEIGER

@<TRIPOS>ATOM
      1 N         141.8996  140.3034  165.6980 N.ar    1  UNL1       -0.3052
      2 C         141.4982  139.4430  164.5368 C.ar    1  UNL1        0.0757
      3 C         142.2048  139.9530  163.3159 C.ar    1  UNL1       -0.0035
      4 C         143.0430  141.1286  163.7226 C.ar    1  UNL1        0.0136
      5 C         143.9536  142.0298  162.9426 C.ar    1  UNL1        0.0012
      6 C         144.6756  143.1476  163.6348 C.ar    1  UNL1        0.0001
      7 C         144.4870  143.3642  165.1070 C.ar    1  UNL1        0.0015
      8 C         143.5764  142.4630  165.8871 C.ar    1  UNL1        0.0175
      9 C         142.8544  141.3451  165.1949 C.ar    1  UNL1        0.0637
     10 F         140.0170  139.6865  171.3616 F       1  UNL1       -0.2042
     11 C         140.4876  139.8407  169.9457 C.ar    1  UNL1        0.1402
     12 C         141.9194  139.5614  169.5967 C.ar    1  UNL1        0.0311
     13 C         142.3901  139.7157  168.1808 C.ar    1  UNL1        0.0198
     14 C         141.4290  140.1491  167.1139 C.ar    1  UNL1        0.0642
     15 C         139.9971  140.4284  167.4630 C.ar    1  UNL1        0.0198
     16 C         139.5264  140.2742  168.8788 C.ar    1  UNL1        0.0311
     17 C         142.0930  139.3868  161.9314 C.3     1  UNL1        0.0266
     18 C         141.1195  139.9786  160.9555 C.3     1  UNL1        0.0218
     19 C         141.0077  139.4124  159.5709 C.3     1  UNL1        0.0725
     20 N         141.8691  138.2545  159.1623 N.3     1  UNL1       -0.2712
     21 C         142.8425  137.6627  160.1382 C.3     1  UNL1        0.0725
     22 C         142.9543  138.2289  161.5227 C.3     1  UNL1        0.0218
     23 C         141.7572  137.6883  157.7777 C.3     1  UNL1        0.0938
     24 C         142.9069  136.9310  157.1821 C.3     1  UNL1        0.1100
     25 N         142.7628  135.4704  156.8722 N.pl3   1  UNL1       -0.2854
     26 C         143.4546  134.3458  157.5838 C.3     1  UNL1        0.1190
     27 C         143.0210  133.0583  156.9478 C.3     1  UNL1        0.1488
     28 N         142.0612  133.3874  155.8430 N.2     1  UNL1       -0.2493
     29 C         141.9015  134.8781  155.7963 C.2     1  UNL1        0.1508
     30 S         141.0332  135.6423  154.8414 S.3     1  UNL1       -0.1081
     31 H         140.4002  134.7727  154.0091 H       1  UNL1        0.1098
@<TRIPOS>BOND
     1    10    11    1
     2    11    12   ar
     3    12    13   ar
     4    13    14   ar
     5    14     1    1
     6     1     2   ar
     7     2     3   ar
     8     3    17    1
     9    17    18    1
    10    18    19    1
    11    19    20    1
    12    20    23    1
    13    23    24    1
    14    24    25    1
    15    25    26    1
    16    26    27    1
    17    27    28    1
    18    28    29    2
    19    29    30    1
    20    20    21    1
    21    21    22    1
    22     3     4   ar
    23     4     5   ar
    24     5     6   ar
    25     6     7   ar
    26     7     8   ar
    27     8     9   ar
    28    14    15   ar
    29    15    16   ar
    30    16    11   ar
    31     9     1   ar
    32    22    17    1
    33     9     4   ar
    34    29    25    1
    35    30    31    1
@<TRIPOS>MOLECULE
*****
 31 35 0 0 0
SMALL
GASTEIGER

@<TRIPOS>ATOM
      1 N         140.7083  141.0691  164.0755 N.ar    1  UNL1       -0.3052
      2 C         140.4828  141.5986  162.6903 C.ar    1  UNL1        0.0757
      3 C         141.5120  142.6571  162.4255 C.ar    1  UNL1       -0.0035
      4 C         142.3737  142.7819  163.6469 C.ar    1  UNL1        0.0136
      5 C         143.5463  143.6623  163.9623 C.ar    1  UNL1        0.0012
      6 C         144.2223  143.5613  165.2975 C.ar    1  UNL1        0.0001
      7 C         143.7256  142.5798  166.3173 C.ar    1  UNL1        0.0015
      8 C         142.5529  141.6994  166.0019 C.ar    1  UNL1        0.0175
      9 C         141.8769  141.8004  164.6667 C.ar    1  UNL1        0.0637
     10 F         137.4994  136.7791  166.7772 F       1  UNL1       -0.2042
     11 C         138.3016  137.8516  166.1018 C.ar    1  UNL1        0.1402
     12 C         139.0801  137.5357  164.8592 C.ar    1  UNL1        0.0311
     13 C         139.8823  138.6082  164.1837 C.ar    1  UNL1        0.0198
     14 C         139.9061  139.9966  164.7509 C.ar    1  UNL1        0.0642
     15 C         139.1276  140.3125  165.9936 C.ar    1  UNL1        0.0198
     16 C         138.3254  139.2400  166.6690 C.ar    1  UNL1        0.0311
     17 C         141.6546  143.4515  161.1611 C.3     1  UNL1        0.0266
     18 C         142.6120  143.0025  160.0971 C.3     1  UNL1        0.0218
     19 C         142.7546  143.7969  158.8327 C.3     1  UNL1        0.0725
     20 N         141.9399  145.0403  158.6323 N.3     1  UNL1       -0.2712
     21 C         140.9825  145.4893  159.6962 C.3     1  UNL1        0.0725
     22 C         140.8399  144.6949  160.9606 C.3     1  UNL1        0.0218
     23 C         142.0824  145.8347  157.3679 C.3     1  UNL1        0.0938
     24 C         141.6305  145.2525  156.0615 C.3     1  UNL1        0.1100
     25 N         140.1660  145.1397  155.7572 N.pl3   1  UNL1       -0.2854
     26 C         139.3090  143.9298  155.9843 C.3     1  UNL1        0.1190
     27 C         137.9147  144.2594  155.5398 C.3     1  UNL1        0.1488
     28 N         137.9101  145.6730  155.0381 N.2     1  UNL1       -0.2493
     29 C         139.3015  146.2171  155.1724 C.2     1  UNL1        0.1508
     30 S         139.7496  147.5963  154.7893 S.3     1  UNL1       -0.1081
     31 H         138.6932  148.2948  154.2936 H       1  UNL1        0.1098
@<TRIPOS>BOND
     1    10    11    1
     2    11    12   ar
     3    12    13   ar
     4    13    14   ar
     5    14     1    1
     6     1     2   ar
     7     2     3   ar
     8     3    17    1
     9    17    18    1
    10    18    19    1
    11    19    20    1
    12    20    23    1
    13    23    24    1
    14    24    25    1
    15    25    26    1
    16    26    27    1
    17    27    28    1
    18    28    29    2
    19    29    30    1
    20    20    21    1
    21    21    22    1
    22     3     4   ar
    23     4     5   ar
    24     5     6   ar
    25     6     7   ar
    26     7     8   ar
    27     8     9   ar
    28    14    15   ar
    29    15    16   ar
    30    16    11   ar
    31     9     1   ar
    32    22    17    1
    33     9     4   ar
    34    29    25    1
    35    30    31    1
@<TRIPOS>MOLECULE
*****
 31 35 0 0 0
SMALL
GASTEIGER

@<TRIPOS>ATOM
      1 N         140.6669  141.0347  164.1281 N.ar    1  UNL1       -0.3052
      2 C         140.4599  141.5244  162.7255 C.ar    1  UNL1        0.0757
      3 C         141.4986  142.5684  162.4410 C.ar    1  UNL1       -0.0035
      4 C         142.3476  142.7240  163.6678 C.ar    1  UNL1        0.0136
      5 C         143.5224  143.6063  163.9701 C.ar    1  UNL1        0.0012
      6 C         144.1830  143.5407  165.3152 C.ar    1  UNL1        0.0001
      7 C         143.6690  142.5928  166.3578 C.ar    1  UNL1        0.0015
      8 C         142.4943  141.7105  166.0555 C.ar    1  UNL1        0.0175
      9 C         141.8336  141.7761  164.7105 C.ar    1  UNL1        0.0637
     10 F         137.4015  136.8457  166.9191 F       1  UNL1       -0.2042
     11 C         138.2179  137.8929  166.2214 C.ar    1  UNL1        0.1402
     12 C         138.3064  139.2777  166.7910 C.ar    1  UNL1        0.0311
     13 C         139.1227  140.3249  166.0932 C.ar    1  UNL1        0.0198
     14 C         139.8506  139.9875  164.8259 C.ar    1  UNL1        0.0642
     15 C         139.7620  138.6026  164.2562 C.ar    1  UNL1        0.0198
     16 C         138.9457  137.5553  164.9540 C.ar    1  UNL1        0.0311
     17 C         141.6601  143.3242  161.1554 C.3     1  UNL1        0.0266
     18 C         142.7229  142.9209  160.1766 C.3     1  UNL1        0.0218
     19 C         142.8843  143.6767  158.8911 C.3     1  UNL1        0.0725
     20 N         141.9831  144.8358  158.5842 N.3     1  UNL1       -0.2712
     21 C         140.9204  145.2391  159.5630 C.3     1  UNL1        0.0725
     22 C         140.7589  144.4833  160.8486 C.3     1  UNL1        0.0218
     23 C         142.1445  145.5916  157.2987 C.3     1  UNL1        0.0938
     24 C         141.1608  145.3937  156.1838 C.3     1  UNL1        0.1100
     25 N         140.3622  146.5562  155.6729 N.pl3   1  UNL1       -0.2854
     26 C         139.3675  147.3565  156.4604 C.3     1  UNL1        0.1190
     27 C         138.8086  148.4174  155.5592 C.3     1  UNL1        0.1488
     28 N         139.4580  148.2728  154.2148 N.2     1  UNL1       -0.2493
     29 C         140.4182  147.1225  154.2851 C.2     1  UNL1        0.1508
     30 S         141.2824  146.6258  153.1643 S.3     1  UNL1       -0.1081
     31 H         141.0659  147.3826  152.0552 H       1  UNL1        0.1098
@<TRIPOS>BOND
     1    10    11    1
     2    11    12   ar
     3    12    13   ar
     4    13    14   ar
     5    14     1    1
     6     1     2   ar
     7     2     3   ar
     8     3    17    1
     9    17    18    1
    10    18    19    1
    11    19    20    1
    12    20    23    1
    13    23    24    1
    14    24    25    1
    15    25    26    1
    16    26    27    1
    17    27    28    1
    18    28    29    2
    19    29    30    1
    20    20    21    1
    21    21    22    1
    22     3     4   ar
    23     4     5   ar
    24     5     6   ar
    25     6     7   ar
    26     7     8   ar
    27     8     9   ar
    28    14    15   ar
    29    15    16   ar
    30    16    11   ar
    31     9     1   ar
    32    22    17    1
    33     9     4   ar
    34    29    25    1
    35    30    31    1
@<TRIPOS>MOLECULE
*****
 31 35 0 0 0
SMALL
GASTEIGER

@<TRIPOS>ATOM
      1 N         141.6172  140.5106  165.7028 N.ar    1  UNL1       -0.3052
      2 C         141.0369  139.7811  164.5276 C.ar    1  UNL1        0.0757
      3 C         141.6992  140.3011  163.2863 C.ar    1  UNL1       -0.0035
      4 C         142.6888  141.3519  163.6943 C.ar    1  UNL1        0.0136
      5 C         143.6295  142.2076  162.8988 C.ar    1  UNL1        0.0012
      6 C         144.5195  143.1928  163.5968 C.ar    1  UNL1        0.0001
      7 C         144.4688  143.3222  165.0904 C.ar    1  UNL1        0.0015
      8 C         143.5281  142.4666  165.8858 C.ar    1  UNL1        0.0175
      9 C         142.6381  141.4814  165.1878 C.ar    1  UNL1        0.0637
     10 F         140.1179  139.6895  171.4542 F       1  UNL1       -0.2042
     11 C         140.4927  139.8947  170.0164 C.ar    1  UNL1        0.1402
     12 C         139.4868  140.4473  169.0506 C.ar    1  UNL1        0.0311
     13 C         139.8616  140.6526  167.6128 C.ar    1  UNL1        0.0198
     14 C         141.2423  140.3053  167.1407 C.ar    1  UNL1        0.0642
     15 C         142.2483  139.7527  168.1065 C.ar    1  UNL1        0.0198
     16 C         141.8735  139.5474  169.5443 C.ar    1  UNL1        0.0311
     17 C         141.4208  139.8495  161.8832 C.3     1  UNL1        0.0266
     18 C         140.2182  140.3693  161.1527 C.3     1  UNL1        0.0218
     19 C         139.9398  139.9177  159.7496 C.3     1  UNL1        0.0725
     20 N         140.8640  138.9464  159.0770 N.3     1  UNL1       -0.2712
     21 C         142.0665  138.4266  159.8075 C.3     1  UNL1        0.0725
     22 C         142.3449  138.8782  161.2106 C.3     1  UNL1        0.0218
     23 C         140.5856  138.4948  157.6740 C.3     1  UNL1        0.0938
     24 C         141.3892  137.3808  157.0713 C.3     1  UNL1        0.1100
     25 N         142.6928  137.6790  156.3916 N.pl3   1  UNL1       -0.2854
     26 C         143.1881  139.0373  155.9919 C.3     1  UNL1        0.1190
     27 C         144.5313  138.8691  155.3455 C.3     1  UNL1        0.1488
     28 N         144.8659  137.4069  155.3458 N.2     1  UNL1       -0.2493
     29 C         143.7297  136.6714  155.9923 C.2     1  UNL1        0.1508
     30 S         143.6453  135.1887  156.2026 S.3     1  UNL1       -0.1081
     31 H         144.7679  134.5968  155.7136 H       1  UNL1        0.1098
@<TRIPOS>BOND
     1    10    11    1
     2    11    12   ar
     3    12    13   ar
     4    13    14   ar
     5    14     1    1
     6     1     2   ar
     7     2     3   ar
     8     3    17    1
     9    17    18    1
    10    18    19    1
    11    19    20    1
    12    20    23    1
    13    23    24    1
    14    24    25    1
    15    25    26    1
    16    26    27    1
    17    27    28    1
    18    28    29    2
    19    29    30    1
    20    20    21    1
    21    21    22    1
    22     3     4   ar
    23     4     5   ar
    24     5     6   ar
    25     6     7   ar
    26     7     8   ar
    27     8     9   ar
    28    14    15   ar
    29    15    16   ar
    30    16    11   ar
    31     9     1   ar
    32    22    17    1
    33     9     4   ar
    34    29    25    1
    35    30    31    1
@<TRIPOS>MOLECULE
*****
 31 35 0 0 0
SMALL
GASTEIGER

@<TRIPOS>ATOM
      1 N         141.6834  142.1492  165.8937 N.ar    1  UNL1       -0.3052
      2 C         142.5481  141.6163  164.7899 C.ar    1  UNL1        0.0757
      3 C         142.0780  142.2207  163.5000 C.ar    1  UNL1       -0.0035
      4 C         140.9228  143.1271  163.8066 C.ar    1  UNL1        0.0136
      5 C         140.0615  143.9869  162.9298 C.ar    1  UNL1        0.0012
      6 C         138.9563  144.8026  163.5325 C.ar    1  UNL1        0.0001
      7 C         138.7124  144.7584  165.0118 C.ar    1  UNL1        0.0015
      8 C         139.5737  143.8985  165.8886 C.ar    1  UNL1        0.0175
      9 C         140.6789  143.0829  165.2860 C.ar    1  UNL1        0.0637
     10 F         142.1591  140.7855  171.7173 F       1  UNL1       -0.2042
     11 C         142.0402  141.1264  170.2614 C.ar    1  UNL1        0.1402
     12 C         140.8160  140.7230  169.4942 C.ar    1  UNL1        0.0311
     13 C         140.6971  141.0639  168.0383 C.ar    1  UNL1        0.0198
     14 C         141.8023  141.8083  167.3496 C.ar    1  UNL1        0.0642
     15 C         143.0266  142.2117  168.1168 C.ar    1  UNL1        0.0198
     16 C         143.1454  141.8708  169.5727 C.ar    1  UNL1        0.0311
     17 C         142.6608  141.9638  162.1419 C.3     1  UNL1        0.0266
     18 C         142.0254  140.9549  161.2317 C.3     1  UNL1        0.0218
     19 C         142.6082  140.6980  159.8736 C.3     1  UNL1        0.0725
     20 N         143.8264  141.4500  159.4257 N.3     1  UNL1       -0.2712
     21 C         144.4617  142.4588  160.3359 C.3     1  UNL1        0.0725
     22 C         143.8789  142.7157  161.6940 C.3     1  UNL1        0.0218
     23 C         144.4092  141.1931  158.0677 C.3     1  UNL1        0.0938
     24 C         144.9268  142.3358  157.2454 C.3     1  UNL1        0.1100
     25 N         146.0903  142.1285  156.3216 N.pl3   1  UNL1       -0.2854
     26 C         147.5184  142.4871  156.6083 C.3     1  UNL1        0.1190
     27 C         148.3408  142.1065  155.4130 C.3     1  UNL1        0.1488
     28 N         147.4210  141.5128  154.3875 N.2     1  UNL1       -0.2493
     29 C         146.0301  141.5264  154.9491 C.2     1  UNL1        0.1508
     30 S         144.7959  141.0257  154.2593 S.3     1  UNL1       -0.1081
     31 H         145.1259  140.5491  153.0290 H       1  UNL1        0.1098
@<TRIPOS>BOND
     1    10    11    1
     2    11    12   ar
     3    12    13   ar
     4    13    14   ar
     5    14     1    1
     6     1     2   ar
     7     2     3   ar
     8     3    17    1
     9    17    18    1
    10    18    19    1
    11    19    20    1
    12    20    23    1
    13    23    24    1
    14    24    25    1
    15    25    26    1
    16    26    27    1
    17    27    28    1
    18    28    29    2
    19    29    30    1
    20    20    21    1
    21    21    22    1
    22     3     4   ar
    23     4     5   ar
    24     5     6   ar
    25     6     7   ar
    26     7     8   ar
    27     8     9   ar
    28    14    15   ar
    29    15    16   ar
    30    16    11   ar
    31     9     1   ar
    32    22    17    1
    33     9     4   ar
    34    29    25    1
    35    30    31    1
@<TRIPOS>MOLECULE
*****
 31 35 0 0 0
SMALL
GASTEIGER

@<TRIPOS>ATOM
      1 N         141.3018  141.9295  165.8824 N.ar    1  UNL1       -0.3052
      2 C         141.9082  140.9280  164.9447 C.ar    1  UNL1        0.0757
      3 C         141.3643  141.1901  163.5716 C.ar    1  UNL1       -0.0035
      4 C         140.4218  142.3537  163.6606 C.ar    1  UNL1        0.0136
      5 C         139.5938  143.0560  162.6257 C.ar    1  UNL1        0.0012
      6 C         138.7272  144.2154  163.0190 C.ar    1  UNL1        0.0001
      7 C         138.6886  144.6724  164.4471 C.ar    1  UNL1        0.0015
      8 C         139.5166  143.9700  165.4820 C.ar    1  UNL1        0.0175
      9 C         140.3832  142.8107  165.0887 C.ar    1  UNL1        0.0637
     10 F         142.3640  142.3395  171.7734 F       1  UNL1       -0.2042
     11 C         142.0985  142.2370  170.3006 C.ar    1  UNL1        0.1402
     12 C         143.2368  142.3083  169.3265 C.ar    1  UNL1        0.0311
     13 C         142.9713  142.2059  167.8538 C.ar    1  UNL1        0.0198
     14 C         141.5674  142.0320  167.3551 C.ar    1  UNL1        0.0642
     15 C         140.4289  141.9607  168.3293 C.ar    1  UNL1        0.0198
     16 C         140.6945  142.0632  169.8020 C.ar    1  UNL1        0.0311
     17 C         141.7034  140.4233  162.3278 C.3     1  UNL1        0.0266
     18 C         143.0905  140.4896  161.7606 C.3     1  UNL1        0.0218
     19 C         143.4296  139.7228  160.5168 C.3     1  UNL1        0.0725
     20 N         142.3817  138.8898  159.8401 N.3     1  UNL1       -0.2712
     21 C         140.9946  138.8235  160.4073 C.3     1  UNL1        0.0725
     22 C         140.6555  139.5903  161.6511 C.3     1  UNL1        0.0218
     23 C         142.7207  138.1230  158.5963 C.3     1  UNL1        0.0938
     24 C         141.6744  137.8980  157.5454 C.3     1  UNL1        0.1100
     25 N         141.7178  136.6622  156.6962 N.pl3   1  UNL1       -0.2854
     26 C         142.7897  135.6132  156.7204 C.3     1  UNL1        0.1190
     27 C         142.4314  134.5611  155.7129 C.3     1  UNL1        0.1488
     28 N         141.1381  134.9601  155.0661 N.2     1  UNL1       -0.2493
     29 C         140.6971  136.2586  155.6738 C.2     1  UNL1        0.1508
     30 S         139.4538  137.0198  155.3211 S.3     1  UNL1       -0.1081
     31 H         138.7718  136.3506  154.3533 H       1  UNL1        0.1098
@<TRIPOS>BOND
     1    10    11    1
     2    11    12   ar
     3    12    13   ar
     4    13    14   ar
     5    14     1    1
     6     1     2   ar
     7     2     3   ar
     8     3    17    1
     9    17    18    1
    10    18    19    1
    11    19    20    1
    12    20    23    1
    13    23    24    1
    14    24    25    1
    15    25    26    1
    16    26    27    1
    17    27    28    1
    18    28    29    2
    19    29    30    1
    20    20    21    1
    21    21    22    1
    22     3     4   ar
    23     4     5   ar
    24     5     6   ar
    25     6     7   ar
    26     7     8   ar
    27     8     9   ar
    28    14    15   ar
    29    15    16   ar
    30    16    11   ar
    31     9     1   ar
    32    22    17    1
    33     9     4   ar
    34    29    25    1
    35    30    31    1
@<TRIPOS>MOLECULE
*****
 31 35 0 0 0
SMALL
GASTEIGER

@<TRIPOS>ATOM
      1 N         140.1359  139.2204  162.6842 N.ar    1  UNL1       -0.3052
      2 C         140.0725  138.3444  161.4681 C.ar    1  UNL1        0.0757
      3 C         140.9800  138.9301  160.4273 C.ar    1  UNL1       -0.0035
      4 C         141.6043  140.1680  161.0000 C.ar    1  UNL1        0.0136
      5 C         142.5803  141.1549  160.4316 C.ar    1  UNL1        0.0012
      6 C         143.0347  142.3213  161.2581 C.ar    1  UNL1        0.0001
      7 C         142.5130  142.5007  162.6529 C.ar    1  UNL1        0.0015
      8 C         141.5369  141.5137  163.2213 C.ar    1  UNL1        0.0175
      9 C         141.0826  140.3474  162.3949 C.ar    1  UNL1        0.0637
     10 F         137.1304  138.3660  167.8065 F       1  UNL1       -0.2042
     11 C         137.8818  138.5796  166.5259 C.ar    1  UNL1        0.1402
     12 C         138.0744  139.9680  165.9919 C.ar    1  UNL1        0.0311
     13 C         138.8258  140.1816  164.7114 C.ar    1  UNL1        0.0198
     14 C         139.3845  139.0068  163.9647 C.ar    1  UNL1        0.0642
     15 C         139.1919  137.6183  164.4987 C.ar    1  UNL1        0.0198
     16 C         138.4406  137.4047  165.7793 C.ar    1  UNL1        0.0311
     17 C         141.2210  138.3753  159.0546 C.3     1  UNL1        0.0266
     18 C         140.0882  138.2762  158.0762 C.3     1  UNL1        0.0218
     19 C         140.3292  137.7214  156.7036 C.3     1  UNL1        0.0725
     20 N         141.7028  137.2658  156.3093 N.3     1  UNL1       -0.2712
     21 C         142.8355  137.3649  157.2876 C.3     1  UNL1        0.0725
     22 C         142.5945  137.9197  158.6603 C.3     1  UNL1        0.0218
     23 C         141.9438  136.7110  154.9366 C.3     1  UNL1        0.0938
     24 C         142.8606  135.5382  154.7521 C.3     1  UNL1        0.1100
     25 N         142.3914  134.1571  155.1022 N.pl3   1  UNL1       -0.2854
     26 C         141.4556  133.3116  154.2900 C.3     1  UNL1        0.1190
     27 C         141.2614  132.0110  155.0117 C.3     1  UNL1        0.1488
     28 N         142.0772  132.0527  156.2698 N.2     1  UNL1       -0.2493
     29 C         142.7755  133.3791  156.3257 C.2     1  UNL1        0.1508
     30 S         143.6963  133.8454  157.4141 S.3     1  UNL1       -0.1081
     31 H         143.8085  132.8746  158.3599 H       1  UNL1        0.1098
@<TRIPOS>BOND
     1    10    11    1
     2    11    12   ar
     3    12    13   ar
     4    13    14   ar
     5    14     1    1
     6     1     2   ar
     7     2     3   ar
     8     3    17    1
     9    17    18    1
    10    18    19    1
    11    19    20    1
    12    20    23    1
    13    23    24    1
    14    24    25    1
    15    25    26    1
    16    26    27    1
    17    27    28    1
    18    28    29    2
    19    29    30    1
    20    20    21    1
    21    21    22    1
    22     3     4   ar
    23     4     5   ar
    24     5     6   ar
    25     6     7   ar
    26     7     8   ar
    27     8     9   ar
    28    14    15   ar
    29    15    16   ar
    30    16    11   ar
    31     9     1   ar
    32    22    17    1
    33     9     4   ar
    34    29    25    1
    35    30    31    1
@<TRIPOS>MOLECULE
*****
 31 35 0 0 0
SMALL
GASTEIGER

@<TRIPOS>ATOM
      1 N         140.8037  140.2900  163.9970 N.ar    1  UNL1       -0.3052
      2 C         140.4193  141.2822  162.9398 C.ar    1  UNL1        0.0757
      3 C         141.6790  141.8137  162.3230 C.ar    1  UNL1       -0.0035
      4 C         142.8420  141.1500  162.9990 C.ar    1  UNL1        0.0136
      5 C         144.3237  141.2816  162.8061 C.ar    1  UNL1        0.0012
      6 C         145.2644  140.4713  163.6478 C.ar    1  UNL1        0.0001
      7 C         144.7234  139.5296  164.6824 C.ar    1  UNL1        0.0015
      8 C         143.2417  139.3981  164.8753 C.ar    1  UNL1        0.0175
      9 C         142.3010  140.2083  164.0336 C.ar    1  UNL1        0.0637
     10 F         137.0170  137.1916  167.4700 F       1  UNL1       -0.2042
     11 C         137.9637  137.9662  166.6018 C.ar    1  UNL1        0.1402
     12 C         138.3344  139.3733  166.9656 C.ar    1  UNL1        0.0311
     13 C         139.2811  140.1479  166.0974 C.ar    1  UNL1        0.0198
     14 C         139.8570  139.5154  164.8653 C.ar    1  UNL1        0.0642
     15 C         139.4863  138.1082  164.5014 C.ar    1  UNL1        0.0198
     16 C         138.5396  137.3336  165.3696 C.ar    1  UNL1        0.0311
     17 C         141.7613  142.8305  161.2233 C.3     1  UNL1        0.0266
     18 C         142.4871  142.5031  159.9519 C.3     1  UNL1        0.0218
     19 C         142.5694  143.5198  158.8521 C.3     1  UNL1        0.0725
     20 N         141.9261  144.8640  159.0237 N.3     1  UNL1       -0.2712
     21 C         141.2004  145.1913  160.2950 C.3     1  UNL1        0.0725
     22 C         141.1180  144.1746  161.3947 C.3     1  UNL1        0.0218
     23 C         142.0084  145.8807  157.9239 C.3     1  UNL1        0.0938
     24 C         140.9100  145.9759  156.9069 C.3     1  UNL1        0.1100
     25 N         140.7513  144.9021  155.8716 N.pl3   1  UNL1       -0.2854
     26 C         141.4027  144.8769  154.5206 C.3     1  UNL1        0.1190
     27 C         140.9673  143.6242  153.8195 C.3     1  UNL1        0.1488
     28 N         140.0469  142.8754  154.7372 N.2     1  UNL1       -0.2493
     29 C         139.9134  143.6652  156.0055 C.2     1  UNL1        0.1508
     30 S         139.0871  143.2848  157.1981 S.3     1  UNL1       -0.1081
     31 H         138.4653  142.0991  156.9592 H       1  UNL1        0.1098
@<TRIPOS>BOND
     1    10    11    1
     2    11    12   ar
     3    12    13   ar
     4    13    14   ar
     5    14     1    1
     6     1     2   ar
     7     2     3   ar
     8     3    17    1
     9    17    18    1
    10    18    19    1
    11    19    20    1
    12    20    23    1
    13    23    24    1
    14    24    25    1
    15    25    26    1
    16    26    27    1
    17    27    28    1
    18    28    29    2
    19    29    30    1
    20    20    21    1
    21    21    22    1
    22     3     4   ar
    23     4     5   ar
    24     5     6   ar
    25     6     7   ar
    26     7     8   ar
    27     8     9   ar
    28    14    15   ar
    29    15    16   ar
    30    16    11   ar
    31     9     1   ar
    32    22    17    1
    33     9     4   ar
    34    29    25    1
    35    30    31    1
@<TRIPOS>MOLECULE
*****
 31 35 0 0 0
SMALL
GASTEIGER

@<TRIPOS>ATOM
      1 N         140.9537  142.4635  165.9036 N.ar    1  UNL1       -0.3052
      2 C         141.4408  143.3660  164.8089 C.ar    1  UNL1        0.0757
      3 C         140.7750  142.9467  163.5319 C.ar    1  UNL1       -0.0035
      4 C         139.8765  141.7851  163.8372 C.ar    1  UNL1        0.0136
      5 C         138.9720  140.9607  162.9700 C.ar    1  UNL1        0.0012
      6 C         138.1779  139.8377  163.5685 C.ar    1  UNL1        0.0001
      7 C         138.2884  139.5390  165.0343 C.ar    1  UNL1        0.0015
      8 C         139.1929  140.3634  165.9016 C.ar    1  UNL1        0.0175
      9 C         139.9869  141.4865  165.3031 C.ar    1  UNL1        0.0637
     10 F         142.5860  142.7172  171.6717 F       1  UNL1       -0.2042
     11 C         142.1780  142.6538  170.2297 C.ar    1  UNL1        0.1402
     12 C         140.7846  143.0362  169.8270 C.ar    1  UNL1        0.0311
     13 C         140.3765  142.9727  168.3850 C.ar    1  UNL1        0.0198
     14 C         141.3618  142.5270  167.3456 C.ar    1  UNL1        0.0642
     15 C         142.7553  142.1446  167.7483 C.ar    1  UNL1        0.0198
     16 C         143.1633  142.2080  169.1903 C.ar    1  UNL1        0.0311
     17 C         140.9730  143.5781  162.1857 C.3     1  UNL1        0.0266
     18 C         141.9907  143.0177  161.2368 C.3     1  UNL1        0.0218
     19 C         142.1887  143.6491  159.8906 C.3     1  UNL1        0.0725
     20 N         141.3691  144.8409  159.4934 N.3     1  UNL1       -0.2712
     21 C         140.3515  145.4013  160.4423 C.3     1  UNL1        0.0725
     22 C         140.1535  144.7699  161.7884 C.3     1  UNL1        0.0218
     23 C         141.5671  145.4724  158.1472 C.3     1  UNL1        0.0938
     24 C         140.7865  144.9788  156.9653 C.3     1  UNL1        0.1100
     25 N         140.8650  145.7083  155.6570 N.pl3   1  UNL1       -0.2854
     26 C         141.7667  145.3645  154.5086 C.3     1  UNL1        0.1190
     27 C         141.5147  146.3534  153.4092 C.3     1  UNL1        0.1488
     28 N         140.4572  147.3083  153.8781 N.2     1  UNL1       -0.2493
     29 C         140.0557  146.9096  155.2673 C.2     1  UNL1        0.1508
     30 S         139.0257  147.5924  156.1175 S.3     1  UNL1       -0.1081
     31 H         138.4990  148.6440  155.4347 H       1  UNL1        0.1098
@<TRIPOS>BOND
     1    10    11    1
     2    11    12   ar
     3    12    13   ar
     4    13    14   ar
     5    14     1    1
     6     1     2   ar
     7     2     3   ar
     8     3    17    1
     9    17    18    1
    10    18    19    1
    11    19    20    1
    12    20    23    1
    13    23    24    1
    14    24    25    1
    15    25    26    1
    16    26    27    1
    17    27    28    1
    18    28    29    2
    19    29    30    1
    20    20    21    1
    21    21    22    1
    22     3     4   ar
    23     4     5   ar
    24     5     6   ar
    25     6     7   ar
    26     7     8   ar
    27     8     9   ar
    28    14    15   ar
    29    15    16   ar
    30    16    11   ar
    31     9     1   ar
    32    22    17    1
    33     9     4   ar
    34    29    25    1
    35    30    31    1
