@<TRIPOS>MOLECULE
*****
 37 40 0 0 0
SMALL
GASTEIGER

@<TRIPOS>ATOM
      1 C         138.5621  140.0033  160.5002 C.ar    1  UNL1        0.1388
      2 C         138.5255  139.9937  159.0007 C.ar    1  UNL1        0.0384
      3 C         139.6750  139.4206  158.2260 C.ar    1  UNL1        0.0203
      4 C         140.8612  138.8571  158.9508 C.ar    1  UNL1        0.0606
      5 C         140.8979  138.8668  160.4503 C.ar    1  UNL1        0.0218
      6 C         139.7483  139.4399  161.2250 C.ar    1  UNL1        0.0384
      7 C         142.1918  138.2457  160.8864 C.ar    1  UNL1        0.0394
      8 C         142.9548  137.8522  159.6564 C.ar    1  UNL1        0.0779
      9 N         142.1324  138.2301  158.4601 N.ar    1  UNL1       -0.3177
     10 C         137.6019  140.9851  162.7056 C.3     1  UNL1        0.2525
     11 O         137.4126  140.5764  161.2748 O.3     1  UNL1       -0.4714
     12 C         142.6433  138.0521  162.3036 C.2     1  UNL1        0.1204
     13 N         143.5057  139.0866  162.9640 N.2     1  UNL1       -0.1636
     14 N         143.9573  138.8931  164.3812 N.pl3   1  UNL1       -0.1361
     15 H         144.8693  138.5727  164.5678 H       1  UNL1        0.1966
     16 S         143.0194  139.1877  165.5141 S.O2    1  UNL1        0.0877
     17 O         143.5996  138.0439  166.2919 O.2     1  UNL1       -0.1487
     18 O         142.4393  140.3316  164.7364 O.2     1  UNL1       -0.1487
     19 C         142.0816  139.4824  166.6471 C.ar    1  UNL1        0.1266
     20 C         140.6374  139.7763  166.3681 C.ar    1  UNL1        0.0199
     21 C         139.6995  140.0710  167.5011 C.ar    1  UNL1       -0.0029
     22 C         140.2059  140.0717  168.9130 C.ar    1  UNL1       -0.0218
     23 C         139.2680  140.3664  170.0460 C.3     1  UNL1        0.0310
     24 C         141.6501  139.7778  169.1920 C.ar    1  UNL1       -0.0029
     25 C         142.5879  139.4832  168.0590 C.ar    1  UNL1        0.0199
     26 C         142.5142  138.0182  157.0251 C.3     1  UNL1        0.1920
     27 C         143.1342  136.7209  156.5977 C.2     1  UNL1        0.2492
     28 O         144.4384  136.7210  155.8568 O.2     1  UNL1       -0.2727
     29 N         142.4499  135.4234  156.9111 N.am    1  UNL1       -0.2823
     30 H         141.5938  135.4233  157.3974 H       1  UNL1        0.1549
     31 C         143.0698  134.1261  156.4837 C.ar    1  UNL1        0.0504
     32 C         142.6282  133.4674  155.2104 C.ar    1  UNL1        0.0155
     33 C         143.2481  132.1701  154.7829 C.ar    1  UNL1        0.0127
     34 C         144.3096  131.5314  155.6287 C.ar    1  UNL1        0.0578
     35 CL        144.9295  130.2341  155.2013 Cl      1  UNL1       -0.0822
     36 C         144.7512  132.1901  156.9020 C.ar    1  UNL1        0.0127
     37 C         144.1313  133.4875  157.3295 C.ar    1  UNL1        0.0155
@<TRIPOS>BOND
     1    10    11    1
     2    11     1    1
     3     1     2   ar
     4     2     3   ar
     5     3     4   ar
     6     4     5   ar
     7     5     6   ar
     8     5     7   ar
     9     7    12    1
    10    12    13    2
    11    13    14    1
    12    14    16    1
    13    16    17    2
    14    16    18    2
    15    16    19    1
    16    19    20   ar
    17    20    21   ar
    18    21    22   ar
    19    22    23    1
    20    22    24   ar
    21    24    25   ar
    22     7     8   ar
    23     8     9   ar
    24     9    26    1
    25    26    27    1
    26    27    28    2
    27    27    29   am
    28    29    31    1
    29    31    32   ar
    30    32    33   ar
    31    33    34   ar
    32    34    35    1
    33    34    36   ar
    34    36    37   ar
    35     6     1   ar
    36    25    19   ar
    37    37    31   ar
    38     9     4   ar
    39    14    15    1
    40    29    30    1
@<TRIPOS>MOLECULE
*****
 37 40 0 0 0
SMALL
GASTEIGER

@<TRIPOS>ATOM
      1 C         143.9140  142.4467  160.5047 C.ar    1  UNL1        0.1388
      2 C         143.8035  142.4818  159.0092 C.ar    1  UNL1        0.0384
      3 C         143.4846  141.2274  158.2511 C.ar    1  UNL1        0.0203
      4 C         143.2761  139.9379  158.9885 C.ar    1  UNL1        0.0606
      5 C         143.3865  139.9029  160.4840 C.ar    1  UNL1        0.0218
      6 C         143.7054  141.1573  161.2421 C.ar    1  UNL1        0.0384
      7 C         143.1310  138.4952  160.9348 C.ar    1  UNL1        0.0394
      8 C         142.8626  137.6602  159.7179 C.ar    1  UNL1        0.0779
      9 N         142.9523  138.5519  158.5151 N.ar    1  UNL1       -0.3177
     10 C         144.1647  143.7098  162.7612 C.3     1  UNL1        0.2525
     11 O         144.2329  143.7012  161.2628 O.3     1  UNL1       -0.4714
     12 C         143.1419  138.0080  162.3535 C.2     1  UNL1        0.1204
     13 N         142.1003  138.4891  163.3197 N.2     1  UNL1       -0.1636
     14 N         142.1111  138.0020  164.7383 N.pl3   1  UNL1       -0.1361
     15 H         141.9662  137.0477  164.9322 H       1  UNL1        0.1966
     16 S         142.3429  138.9688  165.8616 S.O2    1  UNL1        0.0877
     17 O         143.6669  138.3229  166.1442 O.2     1  UNL1       -0.1487
     18 O         141.0189  139.6146  165.5789 O.2     1  UNL1       -0.1487
     19 C         142.5747  139.9355  166.9848 C.ar    1  UNL1        0.1266
     20 C         142.8313  141.3831  166.6874 C.ar    1  UNL1        0.0199
     21 C         143.0631  142.3499  167.8107 C.ar    1  UNL1       -0.0029
     22 C         143.0382  141.8690  169.2313 C.ar    1  UNL1       -0.0218
     23 C         143.2699  142.8358  170.3546 C.3     1  UNL1        0.0310
     24 C         142.7815  140.4214  169.5286 C.ar    1  UNL1       -0.0029
     25 C         142.5497  139.4546  168.4054 C.ar    1  UNL1        0.0199
     26 C         142.7532  138.1314  157.0890 C.3     1  UNL1        0.1920
     27 C         143.2952  136.8166  156.6121 C.2     1  UNL1        0.2492
     28 O         144.4564  136.7839  155.6632 O.2     1  UNL1       -0.2727
     29 N         142.6761  135.5345  157.0842 N.am    1  UNL1       -0.2823
     30 H         141.9140  135.5559  157.7070 H       1  UNL1        0.1549
     31 C         143.2182  134.2197  156.6073 C.ar    1  UNL1        0.0504
     32 C         144.1830  133.4520  157.4615 C.ar    1  UNL1        0.0155
     33 C         144.7251  132.1371  156.9847 C.ar    1  UNL1        0.0127
     34 C         144.3024  131.5900  155.6535 C.ar    1  UNL1        0.0578
     35 CL        144.8444  130.2752  155.1766 Cl      1  UNL1       -0.0822
     36 C         143.3375  132.3577  154.7993 C.ar    1  UNL1        0.0127
     37 C         142.7954  133.6725  155.2762 C.ar    1  UNL1        0.0155
@<TRIPOS>BOND
     1    10    11    1
     2    11     1    1
     3     1     2   ar
     4     2     3   ar
     5     3     4   ar
     6     4     5   ar
     7     5     6   ar
     8     5     7   ar
     9     7    12    1
    10    12    13    2
    11    13    14    1
    12    14    16    1
    13    16    17    2
    14    16    18    2
    15    16    19    1
    16    19    20   ar
    17    20    21   ar
    18    21    22   ar
    19    22    23    1
    20    22    24   ar
    21    24    25   ar
    22     7     8   ar
    23     8     9   ar
    24     9    26    1
    25    26    27    1
    26    27    28    2
    27    27    29   am
    28    29    31    1
    29    31    32   ar
    30    32    33   ar
    31    33    34   ar
    32    34    35    1
    33    34    36   ar
    34    36    37   ar
    35     6     1   ar
    36    25    19   ar
    37    37    31   ar
    38     9     4   ar
    39    14    15    1
    40    29    30    1
@<TRIPOS>MOLECULE
*****
 37 40 0 0 0
SMALL
GASTEIGER

@<TRIPOS>ATOM
      1 C         143.1529  143.0058  160.1389 C.ar    1  UNL1        0.1388
      2 C         143.6764  143.2527  161.5227 C.ar    1  UNL1        0.0384
      3 C         144.0242  142.0948  162.4106 C.ar    1  UNL1        0.0203
      4 C         143.8485  140.6901  161.9147 C.ar    1  UNL1        0.0606
      5 C         143.3251  140.4433  160.5309 C.ar    1  UNL1        0.0218
      6 C         142.9772  141.6012  159.6430 C.ar    1  UNL1        0.0384
      7 C         143.2578  138.9599  160.3184 C.ar    1  UNL1        0.0394
      8 C         143.7397  138.2900  161.5710 C.ar    1  UNL1        0.0779
      9 N         144.1048  139.3593  162.5575 N.ar    1  UNL1       -0.3177
     10 C         141.4673  144.8302  159.3772 C.3     1  UNL1        0.2525
     11 O         142.8051  144.1637  159.2510 O.3     1  UNL1       -0.4714
     12 C         142.7907  138.2680  159.0722 C.2     1  UNL1        0.1204
     13 N         143.2569  138.7463  157.7292 N.2     1  UNL1       -0.1636
     14 N         142.7898  138.0545  156.4829 N.pl3   1  UNL1       -0.1361
     15 H         142.5121  138.5838  155.7007 H       1  UNL1        0.1966
     16 S         142.7458  136.5561  156.4284 S.O2    1  UNL1        0.0877
     17 O         141.2685  136.5901  156.6861 O.2     1  UNL1       -0.1487
     18 O         144.2231  136.5221  156.1708 O.2     1  UNL1       -0.1487
     19 C         142.7018  135.0578  156.3739 C.ar    1  UNL1        0.1266
     20 C         141.7205  134.3685  155.4729 C.ar    1  UNL1        0.0199
     21 C         141.6765  132.8701  155.4184 C.ar    1  UNL1       -0.0029
     22 C         142.6139  132.0610  156.2650 C.ar    1  UNL1       -0.0218
     23 C         142.5699  130.5626  156.2105 C.3     1  UNL1        0.0310
     24 C         143.5952  132.7503  157.1660 C.ar    1  UNL1       -0.0029
     25 C         143.6392  134.2486  157.2205 C.ar    1  UNL1        0.0199
     26 C         144.6334  139.1369  163.9436 C.3     1  UNL1        0.1920
     27 C         143.6978  139.1605  165.1158 C.2     1  UNL1        0.2492
     28 O         143.8235  138.1281  166.1967 O.2     1  UNL1       -0.2727
     29 N         142.6365  140.2166  165.2072 N.am    1  UNL1       -0.2823
     30 H         142.5540  140.8942  164.4978 H       1  UNL1        0.1549
     31 C         141.7010  140.2403  166.3795 C.ar    1  UNL1        0.0504
     32 C         140.2834  139.7774  166.2172 C.ar    1  UNL1        0.0155
     33 C         139.3478  139.8010  167.3894 C.ar    1  UNL1        0.0127
     34 C         139.8297  140.2875  168.7239 C.ar    1  UNL1        0.0578
     35 CL        138.8942  140.3112  169.8962 Cl      1  UNL1       -0.0822
     36 C         141.2473  140.7504  168.8862 C.ar    1  UNL1        0.0127
     37 C         142.1829  140.7267  167.7140 C.ar    1  UNL1        0.0155
@<TRIPOS>BOND
     1    10    11    1
     2    11     1    1
     3     1     2   ar
     4     2     3   ar
     5     3     4   ar
     6     4     5   ar
     7     5     6   ar
     8     5     7   ar
     9     7    12    1
    10    12    13    2
    11    13    14    1
    12    14    16    1
    13    16    17    2
    14    16    18    2
    15    16    19    1
    16    19    20   ar
    17    20    21   ar
    18    21    22   ar
    19    22    23    1
    20    22    24   ar
    21    24    25   ar
    22     7     8   ar
    23     8     9   ar
    24     9    26    1
    25    26    27    1
    26    27    28    2
    27    27    29   am
    28    29    31    1
    29    31    32   ar
    30    32    33   ar
    31    33    34   ar
    32    34    35    1
    33    34    36   ar
    34    36    37   ar
    35     6     1   ar
    36    25    19   ar
    37    37    31   ar
    38     9     4   ar
    39    14    15    1
    40    29    30    1
@<TRIPOS>MOLECULE
*****
 37 40 0 0 0
SMALL
GASTEIGER

@<TRIPOS>ATOM
      1 C         143.8267  142.3647  160.4962 C.ar    1  UNL1        0.1388
      2 C         144.4439  142.3170  159.1299 C.ar    1  UNL1        0.0384
      3 C         144.0641  141.2260  158.1731 C.ar    1  UNL1        0.0203
      4 C         143.0671  140.1828  158.5826 C.ar    1  UNL1        0.0606
      5 C         142.4500  140.2305  159.9489 C.ar    1  UNL1        0.0218
      6 C         142.8298  141.3215  160.9057 C.ar    1  UNL1        0.0384
      7 C         141.5033  139.0733  160.0706 C.ar    1  UNL1        0.0394
      8 C         141.5353  138.3105  158.7795 C.ar    1  UNL1        0.0779
      9 N         142.5018  138.9962  157.8598 N.ar    1  UNL1       -0.3177
     10 C         144.1615  143.2060  162.9314 C.3     1  UNL1        0.2525
     11 O         144.2066  143.4557  161.4531 O.3     1  UNL1       -0.4714
     12 C         140.6707  138.7379  161.2724 C.2     1  UNL1        0.1204
     13 N         139.3576  138.0332  161.1021 N.2     1  UNL1       -0.1636
     14 N         138.5250  137.6977  162.3039 N.pl3   1  UNL1       -0.1361
     15 H         137.7489  137.0988  162.2134 H       1  UNL1        0.1966
     16 S         138.8748  138.2749  163.6435 S.O2    1  UNL1        0.0877
     17 O         138.0083  139.4652  163.3569 O.2     1  UNL1       -0.1487
     18 O         139.7413  137.0845  163.9301 O.2     1  UNL1       -0.1487
     19 C         139.2245  138.8520  164.9831 C.ar    1  UNL1        0.1266
     20 C         140.5964  139.4082  165.2250 C.ar    1  UNL1        0.0199
     21 C         140.9461  139.9853  166.5647 C.ar    1  UNL1       -0.0029
     22 C         139.9241  140.0062  167.6623 C.ar    1  UNL1       -0.0218
     23 C         140.2738  140.5834  169.0020 C.3     1  UNL1        0.0310
     24 C         138.5522  139.4500  167.4204 C.ar    1  UNL1       -0.0029
     25 C         138.2024  138.8729  166.0808 C.ar    1  UNL1        0.0199
     26 C         142.8432  138.5700  156.4627 C.3     1  UNL1        0.1920
     27 C         143.3906  137.1965  156.2101 C.2     1  UNL1        0.2492
     28 O         144.7650  137.0315  155.6324 O.2     1  UNL1       -0.2727
     29 N         142.5637  135.9881  156.5353 N.am    1  UNL1       -0.2823
     30 H         141.6616  136.0964  156.9145 H       1  UNL1        0.1549
     31 C         143.1111  134.6145  156.2827 C.ar    1  UNL1        0.0504
     32 C         143.9598  133.9428  157.3212 C.ar    1  UNL1        0.0155
     33 C         144.5073  132.5692  157.0687 C.ar    1  UNL1        0.0127
     34 C         144.2061  131.8675  155.7776 C.ar    1  UNL1        0.0578
     35 CL        144.7536  130.4940  155.5251 Cl      1  UNL1       -0.0822
     36 C         143.3574  132.5393  154.7392 C.ar    1  UNL1        0.0127
     37 C         142.8099  133.9128  154.9917 C.ar    1  UNL1        0.0155
@<TRIPOS>BOND
     1    10    11    1
     2    11     1    1
     3     1     2   ar
     4     2     3   ar
     5     3     4   ar
     6     4     5   ar
     7     5     6   ar
     8     5     7   ar
     9     7    12    1
    10    12    13    2
    11    13    14    1
    12    14    16    1
    13    16    17    2
    14    16    18    2
    15    16    19    1
    16    19    20   ar
    17    20    21   ar
    18    21    22   ar
    19    22    23    1
    20    22    24   ar
    21    24    25   ar
    22     7     8   ar
    23     8     9   ar
    24     9    26    1
    25    26    27    1
    26    27    28    2
    27    27    29   am
    28    29    31    1
    29    31    32   ar
    30    32    33   ar
    31    33    34   ar
    32    34    35    1
    33    34    36   ar
    34    36    37   ar
    35     6     1   ar
    36    25    19   ar
    37    37    31   ar
    38     9     4   ar
    39    14    15    1
    40    29    30    1
@<TRIPOS>MOLECULE
*****
 37 40 0 0 0
SMALL
GASTEIGER

@<TRIPOS>ATOM
      1 C         139.3355  142.2542  160.3337 C.ar    1  UNL1        0.1388
      2 C         139.2584  142.1790  158.8376 C.ar    1  UNL1        0.0384
      3 C         140.0673  141.1569  158.0953 C.ar    1  UNL1        0.0203
      4 C         140.9532  140.2099  158.8492 C.ar    1  UNL1        0.0606
      5 C         141.0303  140.2851  160.3453 C.ar    1  UNL1        0.0218
      6 C         140.2214  141.3072  161.0875 C.ar    1  UNL1        0.0384
      7 C         141.9847  139.2270  160.8140 C.ar    1  UNL1        0.0394
      8 C         142.4975  138.4980  159.6076 C.ar    1  UNL1        0.0779
      9 N         141.8600  139.1055  158.3933 N.ar    1  UNL1       -0.3177
     10 C         137.8406  142.9040  162.3568 C.3     1  UNL1        0.2525
     11 O         138.5266  143.2764  161.0760 O.3     1  UNL1       -0.4714
     12 C         142.3604  138.9472  162.2390 C.2     1  UNL1        0.1204
     13 N         143.6778  139.4240  162.7748 N.2     1  UNL1       -0.1636
     14 N         144.0536  139.1442  164.1997 N.pl3   1  UNL1       -0.1361
     15 H         144.9484  138.7935  164.4131 H       1  UNL1        0.1966
     16 S         143.0660  139.3988  165.2997 S.O2    1  UNL1        0.0877
     17 O         143.1703  140.8745  165.0518 O.2     1  UNL1       -0.1487
     18 O         142.9617  137.9231  165.5475 O.2     1  UNL1       -0.1487
     19 C         142.0784  139.6534  166.3996 C.ar    1  UNL1        0.1266
     20 C         142.5219  139.6051  167.8317 C.ar    1  UNL1        0.0199
     21 C         141.5343  139.8597  168.9317 C.ar    1  UNL1       -0.0029
     22 C         140.1033  140.1625  168.5995 C.ar    1  UNL1       -0.0218
     23 C         139.1156  140.4171  169.6994 C.3     1  UNL1        0.0310
     24 C         139.6598  140.2109  167.1674 C.ar    1  UNL1       -0.0029
     25 C         140.6474  139.9563  166.0674 C.ar    1  UNL1        0.0199
     26 C         142.0890  138.6827  156.9724 C.3     1  UNL1        0.1920
     27 C         142.7852  137.3869  156.6784 C.2     1  UNL1        0.2492
     28 O         144.2070  137.3910  156.2005 O.2     1  UNL1       -0.2727
     29 N         142.0595  136.0871  156.8622 N.am    1  UNL1       -0.2823
     30 H         141.1263  136.0844  157.1759 H       1  UNL1        0.1549
     31 C         142.7556  134.7914  156.5682 C.ar    1  UNL1        0.0504
     32 C         143.6179  134.1491  157.6141 C.ar    1  UNL1        0.0155
     33 C         144.3141  132.8533  157.3202 C.ar    1  UNL1        0.0127
     34 C         144.1479  132.1998  155.9803 C.ar    1  UNL1        0.0578
     35 CL        144.8441  130.9041  155.6863 Cl      1  UNL1       -0.0822
     36 C         143.2856  132.8421  154.9344 C.ar    1  UNL1        0.0127
     37 C         142.5894  134.1379  155.2283 C.ar    1  UNL1        0.0155
@<TRIPOS>BOND
     1    10    11    1
     2    11     1    1
     3     1     2   ar
     4     2     3   ar
     5     3     4   ar
     6     4     5   ar
     7     5     6   ar
     8     5     7   ar
     9     7    12    1
    10    12    13    2
    11    13    14    1
    12    14    16    1
    13    16    17    2
    14    16    18    2
    15    16    19    1
    16    19    20   ar
    17    20    21   ar
    18    21    22   ar
    19    22    23    1
    20    22    24   ar
    21    24    25   ar
    22     7     8   ar
    23     8     9   ar
    24     9    26    1
    25    26    27    1
    26    27    28    2
    27    27    29   am
    28    29    31    1
    29    31    32   ar
    30    32    33   ar
    31    33    34   ar
    32    34    35    1
    33    34    36   ar
    34    36    37   ar
    35     6     1   ar
    36    25    19   ar
    37    37    31   ar
    38     9     4   ar
    39    14    15    1
    40    29    30    1
@<TRIPOS>MOLECULE
*****
 37 40 0 0 0
SMALL
GASTEIGER

@<TRIPOS>ATOM
      1 C         141.2775  144.3964  159.6013 C.ar    1  UNL1        0.1388
      2 C         141.8769  143.8057  160.8429 C.ar    1  UNL1        0.0384
      3 C         141.3569  142.5059  161.3817 C.ar    1  UNL1        0.0203
      4 C         140.2376  141.7968  160.6787 C.ar    1  UNL1        0.0606
      5 C         139.6381  142.3875  159.4371 C.ar    1  UNL1        0.0218
      6 C         140.1581  143.6873  158.8984 C.ar    1  UNL1        0.0384
      7 C         138.5527  141.4670  158.9632 C.ar    1  UNL1        0.0394
      8 C         138.4814  140.3074  159.9120 C.ar    1  UNL1        0.0779
      9 N         139.5227  140.5113  160.9722 N.ar    1  UNL1       -0.3177
     10 C         142.0596  145.8479  157.5935 C.3     1  UNL1        0.2525
     11 O         141.7974  145.6962  159.0626 O.3     1  UNL1       -0.4714
     12 C         137.6901  141.6704  157.7530 C.2     1  UNL1        0.1204
     13 N         136.8187  140.5547  157.2571 N.2     1  UNL1       -0.1636
     14 N         135.9561  140.7580  156.0469 N.pl3   1  UNL1       -0.1361
     15 H         136.3535  141.0887  155.2091 H       1  UNL1        0.1966
     16 S         134.4880  140.4576  156.1132 S.O2    1  UNL1        0.0877
     17 O         134.2877  141.1454  154.7953 O.2     1  UNL1       -0.1487
     18 O         134.6883  139.7697  157.4310 O.2     1  UNL1       -0.1487
     19 C         133.0199  140.1571  156.1794 C.ar    1  UNL1        0.1266
     20 C         132.0224  141.1929  155.7528 C.ar    1  UNL1        0.0199
     21 C         130.5542  140.8923  155.8191 C.ar    1  UNL1       -0.0029
     22 C         130.0837  139.5562  156.3120 C.ar    1  UNL1       -0.0218
     23 C         128.6156  139.2556  156.3783 C.3     1  UNL1        0.0310
     24 C         131.0813  138.5204  156.7386 C.ar    1  UNL1       -0.0029
     25 C         132.5494  138.8208  156.6724 C.ar    1  UNL1        0.0199
     26 C         139.8003  139.5911  162.1238 C.3     1  UNL1        0.1920
     27 C         139.5787  140.0622  163.5306 C.2     1  UNL1        0.2492
     28 O         138.1866  140.3273  164.0223 O.2     1  UNL1       -0.2727
     29 N         140.7493  140.2682  164.4457 N.am    1  UNL1       -0.2823
     30 H         141.6630  140.0942  164.1230 H       1  UNL1        0.1549
     31 C         140.5277  140.7393  165.8525 C.ar    1  UNL1        0.0504
     32 C         140.0895  139.7682  166.9084 C.ar    1  UNL1        0.0155
     33 C         139.8679  140.2392  168.3152 C.ar    1  UNL1        0.0127
     34 C         140.0845  141.6814  168.6661 C.ar    1  UNL1        0.0578
     35 CL        139.8630  142.1525  170.0728 Cl      1  UNL1       -0.0822
     36 C         140.5227  142.6525  167.6102 C.ar    1  UNL1        0.0127
     37 C         140.7443  142.1815  166.2033 C.ar    1  UNL1        0.0155
@<TRIPOS>BOND
     1    10    11    1
     2    11     1    1
     3     1     2   ar
     4     2     3   ar
     5     3     4   ar
     6     4     5   ar
     7     5     6   ar
     8     5     7   ar
     9     7    12    1
    10    12    13    2
    11    13    14    1
    12    14    16    1
    13    16    17    2
    14    16    18    2
    15    16    19    1
    16    19    20   ar
    17    20    21   ar
    18    21    22   ar
    19    22    23    1
    20    22    24   ar
    21    24    25   ar
    22     7     8   ar
    23     8     9   ar
    24     9    26    1
    25    26    27    1
    26    27    28    2
    27    27    29   am
    28    29    31    1
    29    31    32   ar
    30    32    33   ar
    31    33    34   ar
    32    34    35    1
    33    34    36   ar
    34    36    37   ar
    35     6     1   ar
    36    25    19   ar
    37    37    31   ar
    38     9     4   ar
    39    14    15    1
    40    29    30    1
@<TRIPOS>MOLECULE
*****
 37 40 0 0 0
SMALL
GASTEIGER

@<TRIPOS>ATOM
      1 C         138.7481  142.1082  160.4644 C.ar    1  UNL1        0.1388
      2 C         138.9131  142.2714  158.9825 C.ar    1  UNL1        0.0384
      3 C         139.7154  141.2723  158.2027 C.ar    1  UNL1        0.0203
      4 C         140.3528  140.1101  158.9048 C.ar    1  UNL1        0.0606
      5 C         140.1879  139.9470  160.3867 C.ar    1  UNL1        0.0218
      6 C         139.3855  140.9460  161.1665 C.ar    1  UNL1        0.0384
      7 C         140.9275  138.7098  160.8021 C.ar    1  UNL1        0.0394
      8 C         141.5495  138.1084  159.5768 C.ar    1  UNL1        0.0779
      9 N         141.1944  138.9738  158.4042 N.ar    1  UNL1       -0.3177
     10 C         137.6921  142.8884  162.7063 C.3     1  UNL1        0.2525
     11 O         137.9457  143.1073  161.2443 O.3     1  UNL1       -0.4714
     12 C         141.0274  138.1690  162.1976 C.2     1  UNL1        0.1204
     13 N         142.0736  138.6976  163.1336 N.2     1  UNL1       -0.1636
     14 N         142.1736  138.1570  164.5292 N.pl3   1  UNL1       -0.1361
     15 H         142.0898  137.1892  164.6893 H       1  UNL1        0.1966
     16 S         142.4013  139.0907  165.6808 S.O2    1  UNL1        0.0877
     17 O         143.5473  138.2407  166.1435 O.2     1  UNL1       -0.1487
     18 O         141.2553  139.9408  165.2181 O.2     1  UNL1       -0.1487
     19 C         142.6289  140.0245  166.8324 C.ar    1  UNL1        0.1266
     20 C         142.8828  141.4808  166.5783 C.ar    1  UNL1        0.0199
     21 C         143.1105  142.4145  167.7300 C.ar    1  UNL1       -0.0029
     22 C         143.0843  141.8920  169.1357 C.ar    1  UNL1       -0.0218
     23 C         143.3120  142.8257  170.2874 C.3     1  UNL1        0.0310
     24 C         142.8304  140.4356  169.3898 C.ar    1  UNL1       -0.0029
     25 C         142.6028  139.5019  168.2382 C.ar    1  UNL1        0.0199
     26 C         141.6081  138.7434  156.9810 C.3     1  UNL1        0.1920
     27 C         142.2949  137.4664  156.5969 C.2     1  UNL1        0.2492
     28 O         143.7784  137.4497  156.3759 O.2     1  UNL1       -0.2727
     29 N         141.4982  136.2060  156.4339 N.am    1  UNL1       -0.2823
     30 H         140.5245  136.2169  156.5790 H       1  UNL1        0.1549
     31 C         142.1850  134.9289  156.0498 C.ar    1  UNL1        0.0504
     32 C         141.9916  134.3569  154.6767 C.ar    1  UNL1        0.0155
     33 C         142.6783  133.0799  154.2926 C.ar    1  UNL1        0.0127
     34 C         143.5585  132.3748  155.2816 C.ar    1  UNL1        0.0578
     35 CL        144.2453  131.0978  154.8975 Cl      1  UNL1       -0.0822
     36 C         143.7519  132.9468  156.6547 C.ar    1  UNL1        0.0127
     37 C         143.0652  134.2239  157.0388 C.ar    1  UNL1        0.0155
@<TRIPOS>BOND
     1    10    11    1
     2    11     1    1
     3     1     2   ar
     4     2     3   ar
     5     3     4   ar
     6     4     5   ar
     7     5     6   ar
     8     5     7   ar
     9     7    12    1
    10    12    13    2
    11    13    14    1
    12    14    16    1
    13    16    17    2
    14    16    18    2
    15    16    19    1
    16    19    20   ar
    17    20    21   ar
    18    21    22   ar
    19    22    23    1
    20    22    24   ar
    21    24    25   ar
    22     7     8   ar
    23     8     9   ar
    24     9    26    1
    25    26    27    1
    26    27    28    2
    27    27    29   am
    28    29    31    1
    29    31    32   ar
    30    32    33   ar
    31    33    34   ar
    32    34    35    1
    33    34    36   ar
    34    36    37   ar
    35     6     1   ar
    36    25    19   ar
    37    37    31   ar
    38     9     4   ar
    39    14    15    1
    40    29    30    1
@<TRIPOS>MOLECULE
*****
 37 40 0 0 0
SMALL
GASTEIGER

@<TRIPOS>ATOM
      1 C         139.9272  144.0856  160.3899 C.ar    1  UNL1        0.1388
      2 C         140.7811  143.4622  161.4539 C.ar    1  UNL1        0.0384
      3 C         140.8156  141.9707  161.6096 C.ar    1  UNL1        0.0203
      4 C         139.9962  141.1026  160.7013 C.ar    1  UNL1        0.0606
      5 C         139.1423  141.7261  159.6373 C.ar    1  UNL1        0.0218
      6 C         139.1078  143.2176  159.4816 C.ar    1  UNL1        0.0384
      7 C         138.4474  140.6231  158.8952 C.ar    1  UNL1        0.0394
      8 C         138.8719  139.3180  159.5006 C.ar    1  UNL1        0.0779
      9 N         139.8291  139.6144  160.6168 N.ar    1  UNL1       -0.3177
     10 C         139.6035  146.4485  161.4202 C.3     1  UNL1        0.2525
     11 O         139.8927  145.5771  160.2341 O.3     1  UNL1       -0.4714
     12 C         137.4953  140.7951  157.7490 C.2     1  UNL1        0.1204
     13 N         137.7939  140.1586  156.4240 N.2     1  UNL1       -0.1636
     14 N         136.8418  140.3306  155.2777 N.pl3   1  UNL1       -0.1361
     15 H         137.1882  140.4619  154.3656 H       1  UNL1        0.1966
     16 S         135.3620  140.3024  155.5211 S.O2    1  UNL1        0.0877
     17 O         135.3501  141.7989  155.6222 O.2     1  UNL1       -0.1487
     18 O         135.3739  138.8058  155.4200 O.2     1  UNL1       -0.1487
     19 C         133.8822  140.2742  155.7645 C.ar    1  UNL1        0.1266
     20 C         133.2669  139.1289  156.5127 C.ar    1  UNL1        0.0199
     21 C         131.7869  139.1008  156.7561 C.ar    1  UNL1       -0.0029
     22 C         130.9225  140.2178  156.2513 C.ar    1  UNL1       -0.0218
     23 C         129.4426  140.1896  156.4947 C.3     1  UNL1        0.0310
     24 C         131.5378  141.3630  155.5032 C.ar    1  UNL1       -0.0029
     25 C         133.0176  141.3912  155.2598 C.ar    1  UNL1        0.0199
     26 C         140.5012  138.6005  161.4945 C.3     1  UNL1        0.1920
     27 C         140.4574  138.7531  162.9861 C.2     1  UNL1        0.2492
     28 O         141.5547  138.1774  163.8314 O.2     1  UNL1       -0.2727
     29 N         139.3164  139.4814  163.6324 N.am    1  UNL1       -0.2823
     30 H         138.5962  139.8592  163.0776 H       1  UNL1        0.1549
     31 C         139.2726  139.6340  165.1240 C.ar    1  UNL1        0.0504
     32 C         140.2380  140.5526  165.8125 C.ar    1  UNL1        0.0155
     33 C         140.1943  140.7053  167.3041 C.ar    1  UNL1        0.0127
     34 C         139.1852  139.9393  168.1072 C.ar    1  UNL1        0.0578
     35 CL        139.1414  140.0919  169.5987 Cl      1  UNL1       -0.0822
     36 C         138.2198  139.0206  167.4186 C.ar    1  UNL1        0.0127
     37 C         138.2635  138.8679  165.9270 C.ar    1  UNL1        0.0155
@<TRIPOS>BOND
     1    10    11    1
     2    11     1    1
     3     1     2   ar
     4     2     3   ar
     5     3     4   ar
     6     4     5   ar
     7     5     6   ar
     8     5     7   ar
     9     7    12    1
    10    12    13    2
    11    13    14    1
    12    14    16    1
    13    16    17    2
    14    16    18    2
    15    16    19    1
    16    19    20   ar
    17    20    21   ar
    18    21    22   ar
    19    22    23    1
    20    22    24   ar
    21    24    25   ar
    22     7     8   ar
    23     8     9   ar
    24     9    26    1
    25    26    27    1
    26    27    28    2
    27    27    29   am
    28    29    31    1
    29    31    32   ar
    30    32    33   ar
    31    33    34   ar
    32    34    35    1
    33    34    36   ar
    34    36    37   ar
    35     6     1   ar
    36    25    19   ar
    37    37    31   ar
    38     9     4   ar
    39    14    15    1
    40    29    30    1
@<TRIPOS>MOLECULE
*****
 37 40 0 0 0
SMALL
GASTEIGER

@<TRIPOS>ATOM
      1 C         139.5877  142.9779  160.9121 C.ar    1  UNL1        0.1388
      2 C         139.4035  142.8734  162.3970 C.ar    1  UNL1        0.0384
      3 C         139.3470  141.5255  163.0527 C.ar    1  UNL1        0.0203
      4 C         139.4748  140.2821  162.2235 C.ar    1  UNL1        0.0606
      5 C         139.6590  140.3866  160.7386 C.ar    1  UNL1        0.0218
      6 C         139.7155  141.7345  160.0829 C.ar    1  UNL1        0.0384
      7 C         139.7552  138.9960  160.1843 C.ar    1  UNL1        0.0394
      8 C         139.6303  138.0321  161.3268 C.ar    1  UNL1        0.0779
      9 N         139.4571  138.8270  162.5871 N.ar    1  UNL1       -0.3177
     10 C         139.9683  145.5430  161.0707 C.3     1  UNL1        0.2525
     11 O         139.6441  144.3258  160.2564 O.3     1  UNL1       -0.4714
     12 C         139.9431  138.6332  158.7411 C.2     1  UNL1        0.1204
     13 N         141.3241  138.4255  158.1937 N.2     1  UNL1       -0.1636
     14 N         141.5121  138.0627  156.7505 N.pl3   1  UNL1       -0.1361
     15 H         141.3473  138.7333  156.0488 H       1  UNL1        0.1966
     16 S         141.9512  136.6781  156.3762 S.O2    1  UNL1        0.0877
     17 O         143.3299  136.9776  156.8856 O.2     1  UNL1       -0.1487
     18 O         140.5725  136.3785  155.8669 O.2     1  UNL1       -0.1487
     19 C         142.3903  135.2935  156.0020 C.ar    1  UNL1        0.1266
     20 C         141.5596  134.4717  155.0615 C.ar    1  UNL1        0.0199
     21 C         141.9987  133.0871  154.6873 C.ar    1  UNL1       -0.0029
     22 C         143.2685  132.5243  155.2536 C.ar    1  UNL1       -0.0218
     23 C         143.7077  131.1396  154.8794 C.3     1  UNL1        0.0310
     24 C         144.0992  133.3460  156.1941 C.ar    1  UNL1       -0.0029
     25 C         143.6601  134.7306  156.5683 C.ar    1  UNL1        0.0199
     26 C         139.2946  138.2652  163.9684 C.3     1  UNL1        0.1920
     27 C         139.1756  139.1888  165.1444 C.2     1  UNL1        0.2492
     28 O         137.8310  139.7130  165.5533 O.2     1  UNL1       -0.2727
     29 N         140.4012  139.5880  165.9115 N.am    1  UNL1       -0.2823
     30 H         141.2837  139.2440  165.6432 H       1  UNL1        0.1549
     31 C         140.2822  140.5116  167.0875 C.ar    1  UNL1        0.0504
     32 C         139.8084  139.9850  168.4097 C.ar    1  UNL1        0.0155
     33 C         139.6894  140.9085  169.5858 C.ar    1  UNL1        0.0127
     34 C         140.0442  142.3586  169.4396 C.ar    1  UNL1        0.0578
     35 CL        139.9252  143.2821  170.6156 Cl      1  UNL1       -0.0822
     36 C         140.5180  142.8851  168.1174 C.ar    1  UNL1        0.0127
     37 C         140.6371  141.9616  166.9413 C.ar    1  UNL1        0.0155
@<TRIPOS>BOND
     1    10    11    1
     2    11     1    1
     3     1     2   ar
     4     2     3   ar
     5     3     4   ar
     6     4     5   ar
     7     5     6   ar
     8     5     7   ar
     9     7    12    1
    10    12    13    2
    11    13    14    1
    12    14    16    1
    13    16    17    2
    14    16    18    2
    15    16    19    1
    16    19    20   ar
    17    20    21   ar
    18    21    22   ar
    19    22    23    1
    20    22    24   ar
    21    24    25   ar
    22     7     8   ar
    23     8     9   ar
    24     9    26    1
    25    26    27    1
    26    27    28    2
    27    27    29   am
    28    29    31    1
    29    31    32   ar
    30    32    33   ar
    31    33    34   ar
    32    34    35    1
    33    34    36   ar
    34    36    37   ar
    35     6     1   ar
    36    25    19   ar
    37    37    31   ar
    38     9     4   ar
    39    14    15    1
    40    29    30    1
