@<TRIPOS>MOLECULE
*****
 32 35 0 0 0
SMALL
GASTEIGER

@<TRIPOS>ATOM
      1 C         139.9121  140.5435  168.2246 C.ar    1  UNL1        0.0327
      2 C         139.8272  140.4950  166.7278 C.ar    1  UNL1        0.0044
      3 C         138.7656  139.6695  166.0631 C.ar    1  UNL1        0.0193
      4 C         137.7890  138.8925  166.8952 C.ar    1  UNL1        0.1002
      5 N         137.8740  138.9410  168.3920 N.ar    1  UNL1       -0.2296
      6 C         138.9355  139.7665  169.0567 C.ar    1  UNL1        0.1254
      7 N         139.0204  139.8149  170.5536 N.pl3   1  UNL1       -0.3426
      8 H         138.3794  139.3049  171.0997 H       1  UNL1        0.1437
      9 H         139.7171  140.3567  170.9898 H       1  UNL1        0.1437
     10 C         143.0966  143.0199  170.2186 C.ar    1  UNL1        0.2250
     11 C         141.7008  143.5542  170.0916 C.ar    1  UNL1        0.0577
     12 C         140.6393  142.7287  169.4270 C.ar    1  UNL1        0.0064
     13 C         140.9736  141.3689  168.8892 C.ar    1  UNL1        0.0221
     14 C         142.3694  140.8346  169.0162 C.ar    1  UNL1        0.1021
     15 N         143.4309  141.6601  169.6808 N.ar    1  UNL1       -0.2101
     16 C         145.6060  143.5756  170.5986 C.3     1  UNL1        0.2542
     17 O         144.1582  143.8454  170.8832 O.3     1  UNL1       -0.4561
     18 C         138.6808  139.6211  164.5663 C.ar    1  UNL1        0.0015
     19 C         138.6693  140.8948  163.7741 C.ar    1  UNL1        0.0002
     20 C         138.5844  140.8464  162.2772 C.ar    1  UNL1        0.0045
     21 C         138.5110  139.5242  161.5726 C.ar    1  UNL1        0.0536
     22 C         138.5225  138.2505  162.3649 C.ar    1  UNL1        0.0045
     23 C         138.6074  138.2990  163.8616 C.ar    1  UNL1        0.0002
     24 C         138.4261  139.4757  160.0758 C.2     1  UNL1        0.2491
     25 O         137.1498  139.8536  159.3844 O.2     1  UNL1       -0.2699
     26 N         139.6176  139.0493  159.2705 N.am    1  UNL1       -0.2732
     27 C         140.8939  138.6715  159.9620 C.3     1  UNL1        0.1110
     28 C         142.0854  138.2451  159.1566 C.3     1  UNL1        0.0939
     29 N         142.0005  138.1966  157.6598 N.3     1  UNL1       -0.2686
     30 C         143.1920  137.7702  156.8545 C.3     1  UNL1        0.0897
     31 C         140.7242  138.5745  156.9684 C.3     1  UNL1        0.0939
     32 C         139.5327  139.0008  157.7737 C.3     1  UNL1        0.1110
@<TRIPOS>BOND
     1    16    17    1
     2    17    10    1
     3    10    11   ar
     4    11    12   ar
     5    12    13   ar
     6    13     1    1
     7     1     2   ar
     8     2     3   ar
     9     3    18    1
    10    18    19   ar
    11    19    20   ar
    12    20    21   ar
    13    21    24    1
    14    24    25    2
    15    24    26   am
    16    26    27    1
    17    27    28    1
    18    28    29    1
    19    29    30    1
    20    29    31    1
    21    31    32    1
    22    21    22   ar
    23    22    23   ar
    24     3     4   ar
    25     4     5   ar
    26     5     6   ar
    27     6     7    1
    28    13    14   ar
    29    14    15   ar
    30    15    10   ar
    31     6     1   ar
    32    23    18   ar
    33    32    26    1
    34     7     8    1
    35     7     9    1
@<TRIPOS>MOLECULE
*****
 32 35 0 0 0
SMALL
GASTEIGER

@<TRIPOS>ATOM
      1 C         142.8173  138.1382  158.0234 C.ar    1  UNL1        0.0327
      2 C         142.8461  137.9945  159.5161 C.ar    1  UNL1        0.0044
      3 C         143.2807  139.1469  160.3723 C.ar    1  UNL1        0.0193
      4 C         143.6867  140.4430  159.7357 C.ar    1  UNL1        0.1002
      5 N         143.6579  140.5867  158.2429 N.ar    1  UNL1       -0.2296
      6 C         143.2233  139.4343  157.3868 C.ar    1  UNL1        0.1254
      7 N         143.1945  139.5781  155.8939 N.pl3   1  UNL1       -0.3426
      8 H         143.4610  140.4288  155.4761 H       1  UNL1        0.1437
      9 H         142.9093  138.8217  155.3319 H       1  UNL1        0.1437
     10 C         141.5133  134.6811  155.4548 C.ar    1  UNL1        0.2250
     11 C         142.8105  134.6109  156.2047 C.ar    1  UNL1        0.0577
     12 C         143.2452  135.7633  157.0609 C.ar    1  UNL1        0.0064
     13 C         142.3827  136.9858  157.1672 C.ar    1  UNL1        0.0221
     14 C         141.0855  137.0560  156.4173 C.ar    1  UNL1        0.1021
     15 N         140.6508  135.9036  155.5611 N.ar    1  UNL1       -0.2101
     16 C         141.2961  132.1210  155.0689 C.3     1  UNL1        0.2542
     17 O         141.0787  133.5287  154.5986 O.3     1  UNL1       -0.4561
     18 C         143.3094  139.0032  161.8652 C.ar    1  UNL1        0.0015
     19 C         144.3519  139.7233  162.6681 C.ar    1  UNL1        0.0002
     20 C         144.3806  139.5795  164.1610 C.ar    1  UNL1        0.0045
     21 C         143.3668  138.7156  164.8509 C.ar    1  UNL1        0.0536
     22 C         142.3244  137.9955  164.0479 C.ar    1  UNL1        0.0045
     23 C         142.2957  138.1392  162.5551 C.ar    1  UNL1        0.0002
     24 C         143.3955  138.5718  166.3436 C.2     1  UNL1        0.2491
     25 O         144.2718  137.5342  166.9805 O.2     1  UNL1       -0.2699
     26 N         142.5479  139.4656  167.1996 N.am    1  UNL1       -0.2732
     27 C         141.6716  140.5032  166.5627 C.3     1  UNL1        0.1110
     28 C         140.8240  141.3970  167.4187 C.3     1  UNL1        0.0939
     29 N         140.8527  141.2532  168.9115 N.3     1  UNL1       -0.2686
     30 C         140.0051  142.1470  169.7675 C.3     1  UNL1        0.0897
     31 C         141.7290  140.2156  169.5484 C.3     1  UNL1        0.0939
     32 C         142.5766  139.3219  168.6925 C.3     1  UNL1        0.1110
@<TRIPOS>BOND
     1    16    17    1
     2    17    10    1
     3    10    11   ar
     4    11    12   ar
     5    12    13   ar
     6    13     1    1
     7     1     2   ar
     8     2     3   ar
     9     3    18    1
    10    18    19   ar
    11    19    20   ar
    12    20    21   ar
    13    21    24    1
    14    24    25    2
    15    24    26   am
    16    26    27    1
    17    27    28    1
    18    28    29    1
    19    29    30    1
    20    29    31    1
    21    31    32    1
    22    21    22   ar
    23    22    23   ar
    24     3     4   ar
    25     4     5   ar
    26     5     6   ar
    27     6     7    1
    28    13    14   ar
    29    14    15   ar
    30    15    10   ar
    31     6     1   ar
    32    23    18   ar
    33    32    26    1
    34     7     8    1
    35     7     9    1
@<TRIPOS>MOLECULE
*****
 32 35 0 0 0
SMALL
GASTEIGER

@<TRIPOS>ATOM
      1 C         140.2952  140.1975  159.1001 C.ar    1  UNL1        0.0327
      2 C         140.1971  140.0655  160.5911 C.ar    1  UNL1        0.0044
      3 C         138.8593  139.8689  161.2403 C.ar    1  UNL1        0.0193
      4 C         137.6194  139.8043  160.3985 C.ar    1  UNL1        0.1002
      5 N         137.7175  139.9362  158.9076 N.ar    1  UNL1       -0.2296
      6 C         139.0553  140.1328  158.2584 C.ar    1  UNL1        0.1254
      7 N         139.1533  140.2648  156.7674 N.pl3   1  UNL1       -0.3426
      8 H         138.3396  140.2224  156.2149 H       1  UNL1        0.1437
      9 H         140.0314  140.3938  156.3413 H       1  UNL1        0.1437
     10 C         144.3088  140.7872  157.1526 C.ar    1  UNL1        0.2250
     11 C         143.4303  141.9702  157.4333 C.ar    1  UNL1        0.0577
     12 C         142.0924  141.7736  158.0825 C.ar    1  UNL1        0.0064
     13 C         141.6330  140.3941  158.4510 C.ar    1  UNL1        0.0221
     14 C         142.5115  139.2111  158.1702 C.ar    1  UNL1        0.1021
     15 N         143.8494  139.4077  157.5211 N.ar    1  UNL1       -0.2101
     16 C         146.4064  142.2585  156.7222 C.3     1  UNL1        0.2542
     17 O         145.6467  140.9838  156.5034 O.3     1  UNL1       -0.4561
     18 C         138.7613  139.7370  162.7313 C.ar    1  UNL1        0.0015
     19 C         138.2685  140.8893  163.5554 C.ar    1  UNL1        0.0002
     20 C         138.1705  140.7574  165.0464 C.ar    1  UNL1        0.0045
     21 C         138.5653  139.4730  165.7132 C.ar    1  UNL1        0.0536
     22 C         139.0580  138.3206  164.8890 C.ar    1  UNL1        0.0045
     23 C         139.1560  138.4526  163.3981 C.ar    1  UNL1        0.0002
     24 C         138.4673  139.3410  167.2042 C.2     1  UNL1        0.2491
     25 O         137.4377  138.4345  167.8108 O.2     1  UNL1       -0.2699
     26 N         139.3990  140.1156  168.0885 N.am    1  UNL1       -0.2732
     27 C         140.4286  141.0222  167.4818 C.3     1  UNL1        0.1110
     28 C         141.3603  141.7967  168.3662 C.3     1  UNL1        0.0939
     29 N         141.2623  141.6648  169.8571 N.3     1  UNL1       -0.2686
     30 C         142.1940  142.4393  170.7414 C.3     1  UNL1        0.0897
     31 C         140.2327  140.7582  170.4638 C.3     1  UNL1        0.0939
     32 C         139.3010  139.9836  169.5795 C.3     1  UNL1        0.1110
@<TRIPOS>BOND
     1    16    17    1
     2    17    10    1
     3    10    11   ar
     4    11    12   ar
     5    12    13   ar
     6    13     1    1
     7     1     2   ar
     8     2     3   ar
     9     3    18    1
    10    18    19   ar
    11    19    20   ar
    12    20    21   ar
    13    21    24    1
    14    24    25    2
    15    24    26   am
    16    26    27    1
    17    27    28    1
    18    28    29    1
    19    29    30    1
    20    29    31    1
    21    31    32    1
    22    21    22   ar
    23    22    23   ar
    24     3     4   ar
    25     4     5   ar
    26     5     6   ar
    27     6     7    1
    28    13    14   ar
    29    14    15   ar
    30    15    10   ar
    31     6     1   ar
    32    23    18   ar
    33    32    26    1
    34     7     8    1
    35     7     9    1
@<TRIPOS>MOLECULE
*****
 32 35 0 0 0
SMALL
GASTEIGER

@<TRIPOS>ATOM
      1 C         140.0292  143.1186  164.4416 C.ar    1  UNL1        0.0327
      2 C         140.8258  142.6495  163.2604 C.ar    1  UNL1        0.0044
      3 C         140.9151  143.5021  162.0296 C.ar    1  UNL1        0.0193
      4 C         140.2077  144.8239  161.9799 C.ar    1  UNL1        0.1002
      5 N         139.4111  145.2930  163.1611 N.ar    1  UNL1       -0.2296
      6 C         139.3219  144.4404  164.3919 C.ar    1  UNL1        0.1254
      7 N         138.5252  144.9096  165.5732 N.pl3   1  UNL1       -0.3426
      8 H         138.0609  145.7772  165.5406 H       1  UNL1        0.1437
      9 H         138.4666  144.3500  166.3811 H       1  UNL1        0.1437
     10 C         139.7615  140.5608  168.1343 C.ar    1  UNL1        0.2250
     11 C         140.5140  141.8577  168.1732 C.ar    1  UNL1        0.0577
     12 C         140.6033  142.7103  166.9424 C.ar    1  UNL1        0.0064
     13 C         139.9400  142.2660  165.6725 C.ar    1  UNL1        0.0221
     14 C         139.1874  140.9691  165.6336 C.ar    1  UNL1        0.1021
     15 N         139.0981  140.1165  166.8644 N.ar    1  UNL1       -0.2101
     16 C         140.4336  140.0910  170.5995 C.3     1  UNL1        0.2542
     17 O         139.6722  139.7082  169.3652 O.3     1  UNL1       -0.4561
     18 C         141.7117  143.0329  160.8483 C.ar    1  UNL1        0.0015
     19 C         143.1220  142.5577  161.0358 C.ar    1  UNL1        0.0002
     20 C         143.9187  142.0885  159.8546 C.ar    1  UNL1        0.0045
     21 C         143.3050  142.0945  158.4859 C.ar    1  UNL1        0.0536
     22 C         141.8946  142.5697  158.2984 C.ar    1  UNL1        0.0045
     23 C         141.0980  143.0389  159.4796 C.ar    1  UNL1        0.0002
     24 C         144.1015  141.6253  157.3047 C.2     1  UNL1        0.2491
     25 O         144.9878  142.5857  156.5685 O.2     1  UNL1       -0.2699
     26 N         144.0118  140.1957  156.8597 N.am    1  UNL1       -0.2732
     27 C         143.1255  139.2352  157.5959 C.3     1  UNL1        0.1110
     28 C         143.0358  137.8055  157.1509 C.3     1  UNL1        0.0939
     29 N         143.8324  137.3363  155.9697 N.3     1  UNL1       -0.2686
     30 C         143.7426  135.9067  155.5247 C.3     1  UNL1        0.0897
     31 C         144.7187  138.2968  155.2334 C.3     1  UNL1        0.0939
     32 C         144.8084  139.7264  155.6784 C.3     1  UNL1        0.1110
@<TRIPOS>BOND
     1    16    17    1
     2    17    10    1
     3    10    11   ar
     4    11    12   ar
     5    12    13   ar
     6    13     1    1
     7     1     2   ar
     8     2     3   ar
     9     3    18    1
    10    18    19   ar
    11    19    20   ar
    12    20    21   ar
    13    21    24    1
    14    24    25    2
    15    24    26   am
    16    26    27    1
    17    27    28    1
    18    28    29    1
    19    29    30    1
    20    29    31    1
    21    31    32    1
    22    21    22   ar
    23    22    23   ar
    24     3     4   ar
    25     4     5   ar
    26     5     6   ar
    27     6     7    1
    28    13    14   ar
    29    14    15   ar
    30    15    10   ar
    31     6     1   ar
    32    23    18   ar
    33    32    26    1
    34     7     8    1
    35     7     9    1
@<TRIPOS>MOLECULE
*****
 32 35 0 0 0
SMALL
GASTEIGER

@<TRIPOS>ATOM
      1 C         141.0430  138.3912  158.6047 C.ar    1  UNL1        0.0327
      2 C         140.4223  138.5655  159.9591 C.ar    1  UNL1        0.0044
      3 C         141.2672  138.4439  161.1925 C.ar    1  UNL1        0.0193
      4 C         142.7327  138.1480  161.0716 C.ar    1  UNL1        0.1002
      5 N         143.3534  137.9737  159.7173 N.ar    1  UNL1       -0.2296
      6 C         142.5085  138.0953  158.4838 C.ar    1  UNL1        0.1254
      7 N         143.1292  137.9209  157.1294 N.pl3   1  UNL1       -0.3426
      8 H         144.0911  137.7267  157.0500 H       1  UNL1        0.1437
      9 H         142.5747  138.0007  156.3198 H       1  UNL1        0.1437
     10 C         138.5084  138.7559  154.9043 C.ar    1  UNL1        0.2250
     11 C         139.1218  139.9800  155.5168 C.ar    1  UNL1        0.0577
     12 C         139.9667  139.8584  156.7503 C.ar    1  UNL1        0.0064
     13 C         140.1981  138.5128  157.3712 C.ar    1  UNL1        0.0221
     14 C         139.5847  137.2887  156.7587 C.ar    1  UNL1        0.1021
     15 N         138.7398  137.4102  155.5252 N.ar    1  UNL1       -0.2101
     16 C         136.1938  139.1511  153.7925 C.3     1  UNL1        0.2542
     17 O         137.6635  138.8775  153.6708 O.3     1  UNL1       -0.4561
     18 C         140.6465  138.6183  162.5469 C.ar    1  UNL1        0.0015
     19 C         139.7824  139.8117  162.8279 C.ar    1  UNL1        0.0002
     20 C         139.1616  139.9860  164.1824 C.ar    1  UNL1        0.0045
     21 C         139.4050  138.9669  165.2557 C.ar    1  UNL1        0.0536
     22 C         140.2692  137.7734  164.9747 C.ar    1  UNL1        0.0045
     23 C         140.8899  137.5991  163.6203 C.ar    1  UNL1        0.0002
     24 C         138.7844  139.1412  166.6101 C.2     1  UNL1        0.2491
     25 O         137.3974  138.6329  166.8705 O.2     1  UNL1       -0.2699
     26 N         139.5507  139.8238  167.7040 N.am    1  UNL1       -0.2732
     27 C         140.9377  140.3321  167.4436 C.3     1  UNL1        0.1110
     28 C         141.7040  141.0148  168.5376 C.3     1  UNL1        0.0939
     29 N         141.0834  141.1891  169.8920 N.3     1  UNL1       -0.2686
     30 C         141.8497  141.8717  170.9859 C.3     1  UNL1        0.0897
     31 C         139.6964  140.6808  170.1524 C.3     1  UNL1        0.0939
     32 C         138.9300  139.9981  169.0585 C.3     1  UNL1        0.1110
@<TRIPOS>BOND
     1    16    17    1
     2    17    10    1
     3    10    11   ar
     4    11    12   ar
     5    12    13   ar
     6    13     1    1
     7     1     2   ar
     8     2     3   ar
     9     3    18    1
    10    18    19   ar
    11    19    20   ar
    12    20    21   ar
    13    21    24    1
    14    24    25    2
    15    24    26   am
    16    26    27    1
    17    27    28    1
    18    28    29    1
    19    29    30    1
    20    29    31    1
    21    31    32    1
    22    21    22   ar
    23    22    23   ar
    24     3     4   ar
    25     4     5   ar
    26     5     6   ar
    27     6     7    1
    28    13    14   ar
    29    14    15   ar
    30    15    10   ar
    31     6     1   ar
    32    23    18   ar
    33    32    26    1
    34     7     8    1
    35     7     9    1
@<TRIPOS>MOLECULE
*****
 32 35 0 0 0
SMALL
GASTEIGER

@<TRIPOS>ATOM
      1 C         139.3588  146.4431  156.2611 C.ar    1  UNL1        0.0327
      2 C         140.0619  146.2571  157.5729 C.ar    1  UNL1        0.0044
      3 C         140.1375  144.8952  158.1969 C.ar    1  UNL1        0.0193
      4 C         139.5100  143.7192  157.5091 C.ar    1  UNL1        0.1002
      5 N         138.8068  143.9051  156.1973 N.ar    1  UNL1       -0.2296
      6 C         138.7312  145.2670  155.5733 C.ar    1  UNL1        0.1254
      7 N         138.0280  145.4529  154.2614 N.pl3   1  UNL1       -0.3426
      8 H         137.6161  144.6810  153.8099 H       1  UNL1        0.1437
      9 H         137.9784  146.3468  153.8518 H       1  UNL1        0.1437
     10 C         139.1319  150.5289  154.3890 C.ar    1  UNL1        0.2250
     11 C         139.9830  149.4636  153.7638 C.ar    1  UNL1        0.0577
     12 C         140.0586  148.1017  154.3879 C.ar    1  UNL1        0.0064
     13 C         139.2832  147.8050  155.6371 C.ar    1  UNL1        0.0221
     14 C         138.4321  148.8702  156.2622 C.ar    1  UNL1        0.1021
     15 N         138.3564  150.2322  155.6382 N.ar    1  UNL1       -0.2101
     16 C         138.5282  153.0502  154.5566 C.3     1  UNL1        0.2542
     17 O         139.0563  151.8908  153.7650 O.3     1  UNL1       -0.4561
     18 C         140.8407  144.7093  159.5089 C.ar    1  UNL1        0.0015
     19 C         142.0538  143.8310  159.5917 C.ar    1  UNL1        0.0002
     20 C         142.7570  143.6451  160.9036 C.ar    1  UNL1        0.0045
     21 C         142.2470  144.3376  162.1326 C.ar    1  UNL1        0.0536
     22 C         141.0339  145.2159  162.0497 C.ar    1  UNL1        0.0045
     23 C         140.3307  145.4018  160.7379 C.ar    1  UNL1        0.0002
     24 C         142.9502  144.1517  163.4445 C.2     1  UNL1        0.2491
     25 O         144.0419  145.0967  163.8508 O.2     1  UNL1       -0.2699
     26 N         142.5615  143.0209  164.3501 N.am    1  UNL1       -0.2732
     27 C         141.4698  142.0759  163.9438 C.3     1  UNL1        0.1110
     28 C         141.0812  140.9450  164.8495 C.3     1  UNL1        0.0939
     29 N         141.7843  140.7592  166.1613 N.3     1  UNL1       -0.2686
     30 C         141.3957  139.6283  167.0669 C.3     1  UNL1        0.0897
     31 C         142.8760  141.7042  166.5676 C.3     1  UNL1        0.0939
     32 C         143.2647  142.8350  165.6620 C.3     1  UNL1        0.1110
@<TRIPOS>BOND
     1    16    17    1
     2    17    10    1
     3    10    11   ar
     4    11    12   ar
     5    12    13   ar
     6    13     1    1
     7     1     2   ar
     8     2     3   ar
     9     3    18    1
    10    18    19   ar
    11    19    20   ar
    12    20    21   ar
    13    21    24    1
    14    24    25    2
    15    24    26   am
    16    26    27    1
    17    27    28    1
    18    28    29    1
    19    29    30    1
    20    29    31    1
    21    31    32    1
    22    21    22   ar
    23    22    23   ar
    24     3     4   ar
    25     4     5   ar
    26     5     6   ar
    27     6     7    1
    28    13    14   ar
    29    14    15   ar
    30    15    10   ar
    31     6     1   ar
    32    23    18   ar
    33    32    26    1
    34     7     8    1
    35     7     9    1
@<TRIPOS>MOLECULE
*****
 32 35 0 0 0
SMALL
GASTEIGER

@<TRIPOS>ATOM
      1 C         141.0422  139.4441  158.7914 C.ar    1  UNL1        0.0327
      2 C         141.2593  139.4428  160.2756 C.ar    1  UNL1        0.0044
      3 C         142.3066  138.5550  160.8796 C.ar    1  UNL1        0.0193
      4 C         143.1368  137.6683  159.9995 C.ar    1  UNL1        0.1002
      5 N         142.9196  137.6696  158.5153 N.ar    1  UNL1       -0.2296
      6 C         141.8724  138.5575  157.9113 C.ar    1  UNL1        0.1254
      7 N         141.6553  138.5587  156.4270 N.pl3   1  UNL1       -0.3426
      8 H         142.2001  137.9768  155.8494 H       1  UNL1        0.1437
      9 H         140.9679  139.1415  156.0306 H       1  UNL1        0.1437
     10 C         137.9004  142.1078  156.9793 C.ar    1  UNL1        0.2250
     11 C         139.3086  142.6026  157.1275 C.ar    1  UNL1        0.0577
     12 C         140.3559  141.7147  157.7315 C.ar    1  UNL1        0.0064
     13 C         139.9949  140.3320  158.1874 C.ar    1  UNL1        0.0221
     14 C         138.5867  139.8372  158.0392 C.ar    1  UNL1        0.1021
     15 N         137.5394  140.7251  157.4352 N.ar    1  UNL1       -0.2101
     16 C         136.8908  143.3097  154.9090 C.3     1  UNL1        0.2542
     17 O         136.8531  142.9956  156.3753 O.3     1  UNL1       -0.4561
     18 C         142.5237  138.5537  162.3639 C.ar    1  UNL1        0.0015
     19 C         141.6519  137.7129  163.2487 C.ar    1  UNL1        0.0002
     20 C         141.8689  137.7117  164.7330 C.ar    1  UNL1        0.0045
     21 C         142.9579  138.5513  165.3323 C.ar    1  UNL1        0.0536
     22 C         143.8298  139.3921  164.4474 C.ar    1  UNL1        0.0045
     23 C         143.6126  139.3933  162.9633 C.ar    1  UNL1        0.0002
     24 C         143.1750  138.5501  166.8165 C.2     1  UNL1        0.2491
     25 O         144.1978  137.6366  167.4241 O.2     1  UNL1       -0.2699
     26 N         142.3693  139.4625  167.6930 N.am    1  UNL1       -0.2732
     27 C         141.3465  140.3761  167.0854 C.3     1  UNL1        0.1110
     28 C         140.5408  141.2885  167.9620 C.3     1  UNL1        0.0939
     29 N         140.7579  141.2873  169.4462 N.3     1  UNL1       -0.2686
     30 C         139.9522  142.1997  170.3227 C.3     1  UNL1        0.0897
     31 C         141.7807  140.3737  170.0538 C.3     1  UNL1        0.0939
     32 C         142.5864  139.4613  169.1773 C.3     1  UNL1        0.1110
@<TRIPOS>BOND
     1    16    17    1
     2    17    10    1
     3    10    11   ar
     4    11    12   ar
     5    12    13   ar
     6    13     1    1
     7     1     2   ar
     8     2     3   ar
     9     3    18    1
    10    18    19   ar
    11    19    20   ar
    12    20    21   ar
    13    21    24    1
    14    24    25    2
    15    24    26   am
    16    26    27    1
    17    27    28    1
    18    28    29    1
    19    29    30    1
    20    29    31    1
    21    31    32    1
    22    21    22   ar
    23    22    23   ar
    24     3     4   ar
    25     4     5   ar
    26     5     6   ar
    27     6     7    1
    28    13    14   ar
    29    14    15   ar
    30    15    10   ar
    31     6     1   ar
    32    23    18   ar
    33    32    26    1
    34     7     8    1
    35     7     9    1
@<TRIPOS>MOLECULE
*****
 32 35 0 0 0
SMALL
GASTEIGER

@<TRIPOS>ATOM
      1 C         138.4807  141.4467  160.8176 C.ar    1  UNL1        0.0327
      2 C         138.9022  142.4949  159.8309 C.ar    1  UNL1        0.0044
      3 C         138.5986  142.3177  158.3727 C.ar    1  UNL1        0.0193
      4 C         137.8735  141.0922  157.9011 C.ar    1  UNL1        0.1002
      5 N         137.4520  140.0440  158.8878 N.ar    1  UNL1       -0.2296
      6 C         137.7556  140.2212  160.3460 C.ar    1  UNL1        0.1254
      7 N         137.3340  139.1729  161.3327 N.pl3   1  UNL1       -0.3426
      8 H         136.8581  138.3686  161.0231 H       1  UNL1        0.1437
      9 H         137.5333  139.2892  162.2897 H       1  UNL1        0.1437
     10 C         139.3915  141.9783  165.1923 C.ar    1  UNL1        0.2250
     11 C         138.0722  142.4310  164.6404 C.ar    1  UNL1        0.0577
     12 C         137.7686  142.2538  163.1822 C.ar    1  UNL1        0.0064
     13 C         138.7843  141.6239  162.2758 C.ar    1  UNL1        0.0221
     14 C         140.1036  141.1712  162.8276 C.ar    1  UNL1        0.1021
     15 N         140.4072  141.3484  164.2859 N.ar    1  UNL1       -0.2101
     16 C         140.9757  141.6213  167.2203 C.3     1  UNL1        0.2542
     17 O         139.6951  142.1556  166.6505 O.3     1  UNL1       -0.4561
     18 C         139.0201  143.3660  157.3861 C.ar    1  UNL1        0.0015
     19 C         140.2698  144.1607  157.6241 C.ar    1  UNL1        0.0002
     20 C         140.6913  145.2090  156.6375 C.ar    1  UNL1        0.0045
     21 C         139.8631  145.4625  155.4128 C.ar    1  UNL1        0.0536
     22 C         138.6134  144.6678  155.1747 C.ar    1  UNL1        0.0045
     23 C         138.1919  143.6195  156.1614 C.ar    1  UNL1        0.0002
     24 C         140.2846  146.5108  154.4261 C.2     1  UNL1        0.2491
     25 O         141.1678  146.1419  153.2712 O.2     1  UNL1       -0.2699
     26 N         139.8229  147.9280  154.5944 N.am    1  UNL1       -0.2732
     27 C         138.9397  148.2969  155.7493 C.3     1  UNL1        0.1110
     28 C         138.4779  149.7142  155.9176 C.3     1  UNL1        0.0939
     29 N         138.8994  150.7624  154.9309 N.3     1  UNL1       -0.2686
     30 C         138.4377  152.1796  155.0992 C.3     1  UNL1        0.0897
     31 C         139.7826  150.3935  153.7760 C.3     1  UNL1        0.0939
     32 C         140.2444  148.9763  153.6078 C.3     1  UNL1        0.1110
@<TRIPOS>BOND
     1    16    17    1
     2    17    10    1
     3    10    11   ar
     4    11    12   ar
     5    12    13   ar
     6    13     1    1
     7     1     2   ar
     8     2     3   ar
     9     3    18    1
    10    18    19   ar
    11    19    20   ar
    12    20    21   ar
    13    21    24    1
    14    24    25    2
    15    24    26   am
    16    26    27    1
    17    27    28    1
    18    28    29    1
    19    29    30    1
    20    29    31    1
    21    31    32    1
    22    21    22   ar
    23    22    23   ar
    24     3     4   ar
    25     4     5   ar
    26     5     6   ar
    27     6     7    1
    28    13    14   ar
    29    14    15   ar
    30    15    10   ar
    31     6     1   ar
    32    23    18   ar
    33    32    26    1
    34     7     8    1
    35     7     9    1
@<TRIPOS>MOLECULE
*****
 32 35 0 0 0
SMALL
GASTEIGER

@<TRIPOS>ATOM
      1 C         140.6220  139.4920  165.5112 C.ar    1  UNL1        0.0327
      2 C         141.1787  139.3013  164.1315 C.ar    1  UNL1        0.0044
      3 C         140.3902  138.5470  163.1022 C.ar    1  UNL1        0.0193
      4 C         139.0450  137.9835  163.4527 C.ar    1  UNL1        0.1002
      5 N         138.4883  138.1742  164.8324 N.ar    1  UNL1       -0.2296
      6 C         139.2768  138.9285  165.8616 C.ar    1  UNL1        0.1254
      7 N         138.7200  139.1192  167.2414 N.pl3   1  UNL1       -0.3426
      8 H         137.8371  138.7493  167.4714 H       1  UNL1        0.1437
      9 H         139.2375  139.6143  167.9170 H       1  UNL1        0.1437
     10 C         142.9874  141.7548  168.5990 C.ar    1  UNL1        0.2250
     11 C         142.2297  142.4999  167.5404 C.ar    1  UNL1        0.0577
     12 C         141.4412  141.7456  166.5112 C.ar    1  UNL1        0.0064
     13 C         141.4104  140.2463  166.5405 C.ar    1  UNL1        0.0221
     14 C         142.1682  139.5012  167.5990 C.ar    1  UNL1        0.1021
     15 N         142.9567  140.2554  168.6283 N.ar    1  UNL1       -0.2101
     16 C         143.0656  143.2565  170.7177 C.3     1  UNL1        0.2542
     17 O         143.7759  142.5090  169.6283 O.3     1  UNL1       -0.4561
     18 C         140.9470  138.3563  161.7224 C.ar    1  UNL1        0.0015
     19 C         140.1107  138.6917  160.5233 C.ar    1  UNL1        0.0002
     20 C         140.6675  138.5010  159.1435 C.ar    1  UNL1        0.0045
     21 C         142.0606  137.9748  158.9630 C.ar    1  UNL1        0.0536
     22 C         142.8968  137.6394  160.1623 C.ar    1  UNL1        0.0045
     23 C         142.3400  137.8301  161.5420 C.ar    1  UNL1        0.0002
     24 C         142.6174  137.7841  157.5833 C.2     1  UNL1        0.2491
     25 O         142.3159  136.5286  156.8198 O.2     1  UNL1       -0.2699
     26 N         143.4757  138.8488  156.9672 N.am    1  UNL1       -0.2732
     27 C         143.7772  140.1042  157.7307 C.3     1  UNL1        0.1110
     28 C         144.6355  141.1690  157.1145 C.3     1  UNL1        0.0939
     29 N         145.1923  140.9782  155.7348 N.3     1  UNL1       -0.2686
     30 C         146.0506  142.0429  155.1187 C.3     1  UNL1        0.0897
     31 C         144.8908  139.7228  154.9713 C.3     1  UNL1        0.0939
     32 C         144.0325  138.6581  155.5874 C.3     1  UNL1        0.1110
@<TRIPOS>BOND
     1    16    17    1
     2    17    10    1
     3    10    11   ar
     4    11    12   ar
     5    12    13   ar
     6    13     1    1
     7     1     2   ar
     8     2     3   ar
     9     3    18    1
    10    18    19   ar
    11    19    20   ar
    12    20    21   ar
    13    21    24    1
    14    24    25    2
    15    24    26   am
    16    26    27    1
    17    27    28    1
    18    28    29    1
    19    29    30    1
    20    29    31    1
    21    31    32    1
    22    21    22   ar
    23    22    23   ar
    24     3     4   ar
    25     4     5   ar
    26     5     6   ar
    27     6     7    1
    28    13    14   ar
    29    14    15   ar
    30    15    10   ar
    31     6     1   ar
    32    23    18   ar
    33    32    26    1
    34     7     8    1
    35     7     9    1
