@<TRIPOS>MOLECULE
*****
 34 38 0 0 0
SMALL
GASTEIGER

@<TRIPOS>ATOM
      1 C         143.6751  142.2027  162.1303 C.ar    1  UNL1        0.1074
      2 C         145.1536  142.1649  162.3801 C.ar    1  UNL1        0.0588
      3 S         145.3929  141.3631  163.6251 S.2     1  UNL1       -0.0508
      4 C         144.0622  140.9055  164.1447 C.ar    1  UNL1        0.1646
      5 N         143.0005  141.4244  163.2208 N.ar    1  UNL1       -0.2224
      6 C         141.1143  144.4629  160.1093 C.ar    1  UNL1        0.2416
      7 N         141.7982  143.7687  161.2496 N.ar    1  UNL1       -0.2089
      8 C         142.9911  142.8970  160.9900 C.ar    1  UNL1        0.1026
      9 C         143.5000  142.7196  159.5902 C.ar    1  UNL1        0.0224
     10 C         142.8160  143.4140  158.4499 C.ar    1  UNL1        0.0239
     11 C         141.6232  144.2856  158.7095 C.ar    1  UNL1        0.1189
     12 N         140.9392  144.9799  157.5693 N.ar    1  UNL1       -0.2826
     13 C         141.4763  146.1502  156.7998 C.ar    1  UNL1        0.1826
     14 N         140.4672  146.5194  155.7533 N.ar    1  UNL1       -0.2280
     15 C         139.3063  145.5772  155.8759 C.ar    1  UNL1        0.0786
     16 C         138.0707  145.5852  155.0255 C.3     1  UNL1        0.0538
     17 C         139.5981  144.6258  156.9983 C.ar    1  UNL1        0.0963
     18 C         139.8263  146.1144  161.6467 C.3     1  UNL1        0.2543
     19 O         139.9215  145.3345  160.3689 O.3     1  UNL1       -0.4551
     20 N         143.8334  140.0748  165.3726 N.pl3   1  UNL1       -0.2786
     21 H         144.5987  139.6783  165.8483 H       1  UNL1        0.1555
     22 C         142.4385  139.8483  165.8756 C.ar    1  UNL1        0.1274
     23 C         141.3783  139.0323  165.1972 C.ar    1  UNL1        0.0244
     24 C         140.1435  139.0777  166.0476 C.ar    1  UNL1        0.0773
     25 N         140.4406  139.9216  167.2515 N.ar    1  UNL1       -0.1730
     26 N         141.8590  140.3979  167.1452 N.ar    1  UNL1       -0.2420
     27 C         138.9081  138.3446  165.6158 C.3     1  UNL1        0.0474
     28 C         138.9076  137.5662  164.3336 C.3     1  UNL1        0.0067
     29 C         140.1424  137.5209  163.4832 C.3     1  UNL1        0.0052
     30 C         141.3777  138.2539  163.9150 C.3     1  UNL1        0.0305
     31 C         142.5725  141.2706  168.1348 C.3     1  UNL1        0.0879
     32 C         142.7212  140.0995  169.0603 C.3     1  UNL1        0.0245
     33 C         142.4239  142.4416  167.2093 C.3     1  UNL1        0.0245
     34 C         143.2861  142.1432  169.1244 C.3     1  UNL1        0.0245
@<TRIPOS>BOND
     1    18    19    1
     2    19     6    1
     3     6     7   ar
     4     7     8   ar
     5     8     1    1
     6     1     2   ar
     7     2     3   ar
     8     3     4   ar
     9     4    20    1
    10    20    22    1
    11    22    23   ar
    12    23    24   ar
    13    24    25   ar
    14    25    26   ar
    15    26    31    1
    16    31    32    1
    17    31    33    1
    18    31    34    1
    19    24    27    1
    20    27    28    1
    21    28    29    1
    22    29    30    1
    23     4     5   ar
    24     8     9   ar
    25     9    10   ar
    26    10    11   ar
    27    11    12    1
    28    12    13   ar
    29    13    14   ar
    30    14    15   ar
    31    15    16    1
    32    15    17   ar
    33    11     6   ar
    34    17    12   ar
    35     5     1   ar
    36    26    22   ar
    37    30    23    1
    38    20    21    1
@<TRIPOS>MOLECULE
*****
 34 38 0 0 0
SMALL
GASTEIGER

@<TRIPOS>ATOM
      1 C         142.6245  143.2089  163.3500 C.ar    1  UNL1        0.1074
      2 C         143.7803  143.8793  164.0316 C.ar    1  UNL1        0.0588
      3 S         144.0400  143.1576  165.3208 S.2     1  UNL1       -0.0508
      4 C         143.0448  142.0413  165.4357 C.ar    1  UNL1        0.1646
      5 N         142.1699  142.0730  164.2177 N.ar    1  UNL1       -0.2224
      6 C         142.2576  143.9264  159.4640 C.ar    1  UNL1        0.2416
      7 N         142.8542  143.5303  160.7820 N.ar    1  UNL1       -0.2089
      8 C         142.0280  143.6050  162.0319 C.ar    1  UNL1        0.1026
      9 C         140.6054  144.0757  161.9636 C.ar    1  UNL1        0.0224
     10 C         140.0090  144.4718  160.6454 C.ar    1  UNL1        0.0239
     11 C         140.8351  144.3971  159.3957 C.ar    1  UNL1        0.1189
     12 N         140.2386  144.7932  158.0776 N.ar    1  UNL1       -0.2826
     13 C         139.5792  143.8708  157.0954 C.ar    1  UNL1        0.1826
     14 N         139.1298  144.6887  155.9211 N.ar    1  UNL1       -0.2280
     15 C         139.5115  146.1166  156.1774 C.ar    1  UNL1        0.0786
     16 C         139.2533  147.2762  155.2617 C.3     1  UNL1        0.0538
     17 C         140.1968  146.1811  157.5102 C.ar    1  UNL1        0.0963
     18 C         144.1907  142.8454  158.1059 C.3     1  UNL1        0.2543
     19 O         143.0837  143.8517  158.2142 O.3     1  UNL1       -0.4551
     20 N         142.9423  141.0646  166.5697 N.pl3   1  UNL1       -0.2786
     21 H         143.7564  140.6526  166.9395 H       1  UNL1        0.1555
     22 C         141.5996  140.7159  167.1401 C.ar    1  UNL1        0.1274
     23 C         140.5974  139.7822  166.5287 C.ar    1  UNL1        0.0244
     24 C         139.4017  139.7288  167.4328 C.ar    1  UNL1        0.0773
     25 N         139.6649  140.6296  168.6030 N.ar    1  UNL1       -0.1730
     26 N         141.0233  141.2396  168.4222 N.ar    1  UNL1       -0.2420
     27 C         138.2277  138.8670  167.0737 C.3     1  UNL1        0.0474
     28 C         138.2495  138.0585  165.8104 C.3     1  UNL1        0.0067
     29 C         139.4452  138.1118  164.9063 C.3     1  UNL1        0.0052
     30 C         140.6192  138.9737  165.2654 C.3     1  UNL1        0.0305
     31 C         141.6885  142.2040  169.3588 C.3     1  UNL1        0.0879
     32 C         142.6768  141.1448  169.7475 C.3     1  UNL1        0.0245
     33 C         140.7001  143.2633  168.9701 C.3     1  UNL1        0.0245
     34 C         142.3537  143.1684  170.2955 C.3     1  UNL1        0.0245
@<TRIPOS>BOND
     1    18    19    1
     2    19     6    1
     3     6     7   ar
     4     7     8   ar
     5     8     1    1
     6     1     2   ar
     7     2     3   ar
     8     3     4   ar
     9     4    20    1
    10    20    22    1
    11    22    23   ar
    12    23    24   ar
    13    24    25   ar
    14    25    26   ar
    15    26    31    1
    16    31    32    1
    17    31    33    1
    18    31    34    1
    19    24    27    1
    20    27    28    1
    21    28    29    1
    22    29    30    1
    23     4     5   ar
    24     8     9   ar
    25     9    10   ar
    26    10    11   ar
    27    11    12    1
    28    12    13   ar
    29    13    14   ar
    30    14    15   ar
    31    15    16    1
    32    15    17   ar
    33    11     6   ar
    34    17    12   ar
    35     5     1   ar
    36    26    22   ar
    37    30    23    1
    38    20    21    1
@<TRIPOS>MOLECULE
*****
 34 38 0 0 0
SMALL
GASTEIGER

@<TRIPOS>ATOM
      1 C         140.0405  139.7886  159.8221 C.ar    1  UNL1        0.1074
      2 C         139.1383  140.9824  159.7182 C.ar    1  UNL1        0.0588
      3 S         139.0589  141.6226  161.0723 S.2     1  UNL1       -0.0508
      4 C         139.9120  140.8245  162.0132 C.ar    1  UNL1        0.1646
      5 N         140.5187  139.6910  161.2405 N.ar    1  UNL1       -0.2224
      6 C         139.6923  137.3905  156.6791 C.ar    1  UNL1        0.2416
      7 N         139.3316  138.3231  157.7973 N.ar    1  UNL1       -0.2089
      8 C         140.4012  138.8560  158.7040 C.ar    1  UNL1        0.1026
      9 C         141.8314  138.4563  158.4925 C.ar    1  UNL1        0.0224
     10 C         142.1921  137.5237  157.3743 C.ar    1  UNL1        0.0239
     11 C         141.1225  136.9909  156.4676 C.ar    1  UNL1        0.1189
     12 N         141.4831  136.0583  155.3495 N.ar    1  UNL1       -0.2826
     13 C         141.7040  136.4435  153.9166 C.ar    1  UNL1        0.1826
     14 N         142.0436  135.2002  153.1495 N.ar    1  UNL1       -0.2280
     15 C         142.0327  134.0464  154.1082 C.ar    1  UNL1        0.0786
     16 C         142.3181  132.6139  153.7670 C.3     1  UNL1        0.0538
     17 C         141.6863  134.5769  155.4679 C.ar    1  UNL1        0.0963
     18 C         138.1788  137.6587  154.5845 C.3     1  UNL1        0.2543
     19 O         138.6228  136.8576  155.7725 O.3     1  UNL1       -0.4551
     20 N         140.1217  141.1098  163.4708 N.pl3   1  UNL1       -0.2786
     21 H         139.4978  140.7440  164.1388 H       1  UNL1        0.1555
     22 C         141.2820  141.9526  163.9108 C.ar    1  UNL1        0.1274
     23 C         142.7323  141.5909  163.7847 C.ar    1  UNL1        0.0244
     24 C         143.5424  142.7197  164.3500 C.ar    1  UNL1        0.0773
     25 N         142.5927  143.7790  164.8255 N.ar    1  UNL1       -0.1730
     26 N         141.1957  143.3049  164.5540 N.ar    1  UNL1       -0.2420
     27 C         145.0400  142.6372  164.3588 C.3     1  UNL1        0.0474
     28 C         145.7276  141.4258  163.8023 C.3     1  UNL1        0.0067
     29 C         144.9176  140.2970  163.2369 C.3     1  UNL1        0.0052
     30 C         143.4199  140.3796  163.2281 C.3     1  UNL1        0.0305
     31 C         139.9340  144.0519  164.8703 C.3     1  UNL1        0.0879
     32 C         140.0069  144.7388  163.5388 C.3     1  UNL1        0.0245
     33 C         139.8611  143.3651  166.2018 C.3     1  UNL1        0.0245
     34 C         138.6723  144.7990  165.1866 C.3     1  UNL1        0.0245
@<TRIPOS>BOND
     1    18    19    1
     2    19     6    1
     3     6     7   ar
     4     7     8   ar
     5     8     1    1
     6     1     2   ar
     7     2     3   ar
     8     3     4   ar
     9     4    20    1
    10    20    22    1
    11    22    23   ar
    12    23    24   ar
    13    24    25   ar
    14    25    26   ar
    15    26    31    1
    16    31    32    1
    17    31    33    1
    18    31    34    1
    19    24    27    1
    20    27    28    1
    21    28    29    1
    22    29    30    1
    23     4     5   ar
    24     8     9   ar
    25     9    10   ar
    26    10    11   ar
    27    11    12    1
    28    12    13   ar
    29    13    14   ar
    30    14    15   ar
    31    15    16    1
    32    15    17   ar
    33    11     6   ar
    34    17    12   ar
    35     5     1   ar
    36    26    22   ar
    37    30    23    1
    38    20    21    1
@<TRIPOS>MOLECULE
*****
 34 38 0 0 0
SMALL
GASTEIGER

@<TRIPOS>ATOM
      1 C         141.4980  138.7758  159.7790 C.ar    1  UNL1        0.1074
      2 C         141.3232  139.8103  158.7071 C.ar    1  UNL1        0.0588
      3 S         141.9849  139.3024  157.4604 S.2     1  UNL1       -0.0508
      4 C         142.5687  137.9540  157.7619 C.ar    1  UNL1        0.1646
      5 N         142.2678  137.6285  159.1949 N.ar    1  UNL1       -0.2224
      6 C         139.6754  140.1556  163.0232 C.ar    1  UNL1        0.2416
      7 N         140.1815  140.0597  161.6143 N.ar    1  UNL1       -0.2089
      8 C         140.9919  138.8717  161.1878 C.ar    1  UNL1        0.1026
      9 C         141.2962  137.7796  162.1700 C.ar    1  UNL1        0.0224
     10 C         140.7900  137.8756  163.5788 C.ar    1  UNL1        0.0239
     11 C         139.9796  139.0636  164.0054 C.ar    1  UNL1        0.1189
     12 N         139.4735  139.1595  165.4141 N.ar    1  UNL1       -0.2826
     13 C         138.2727  138.4526  165.9697 C.ar    1  UNL1        0.1826
     14 N         138.1364  138.8353  167.4135 N.ar    1  UNL1       -0.2280
     15 C         139.2529  139.7788  167.7505 C.ar    1  UNL1        0.0786
     16 C         139.4997  140.4109  169.0882 C.3     1  UNL1        0.0538
     17 C         140.0793  139.9791  166.5147 C.ar    1  UNL1        0.0963
     18 C         137.3885  141.3776  163.1873 C.3     1  UNL1        0.2543
     19 O         138.8650  141.3436  163.4497 O.3     1  UNL1       -0.4551
     20 N         143.3214  137.0838  156.7994 N.pl3   1  UNL1       -0.2786
     21 H         144.2355  137.3273  156.5269 H       1  UNL1        0.1555
     22 C         142.6812  135.8425  156.2522 C.ar    1  UNL1        0.1274
     23 C         143.0440  134.4319  156.6106 C.ar    1  UNL1        0.0244
     24 C         142.1528  133.5115  155.8304 C.ar    1  UNL1        0.0773
     25 N         141.2392  134.3534  154.9898 N.ar    1  UNL1       -0.1730
     26 N         141.5657  135.7940  155.2504 N.ar    1  UNL1       -0.2420
     27 C         142.2884  132.0259  155.9862 C.3     1  UNL1        0.0474
     28 C         143.3151  131.4605  156.9222 C.3     1  UNL1        0.0067
     29 C         144.2063  132.3809  157.7024 C.3     1  UNL1        0.0052
     30 C         144.0707  133.8666  157.5466 C.3     1  UNL1        0.0305
     31 C         140.8947  136.9782  154.6201 C.3     1  UNL1        0.0879
     32 C         139.7756  136.8729  155.6134 C.3     1  UNL1        0.0245
     33 C         142.0137  137.0836  153.6268 C.3     1  UNL1        0.0245
     34 C         140.2236  138.1624  153.9897 C.3     1  UNL1        0.0245
@<TRIPOS>BOND
     1    18    19    1
     2    19     6    1
     3     6     7   ar
     4     7     8   ar
     5     8     1    1
     6     1     2   ar
     7     2     3   ar
     8     3     4   ar
     9     4    20    1
    10    20    22    1
    11    22    23   ar
    12    23    24   ar
    13    24    25   ar
    14    25    26   ar
    15    26    31    1
    16    31    32    1
    17    31    33    1
    18    31    34    1
    19    24    27    1
    20    27    28    1
    21    28    29    1
    22    29    30    1
    23     4     5   ar
    24     8     9   ar
    25     9    10   ar
    26    10    11   ar
    27    11    12    1
    28    12    13   ar
    29    13    14   ar
    30    14    15   ar
    31    15    16    1
    32    15    17   ar
    33    11     6   ar
    34    17    12   ar
    35     5     1   ar
    36    26    22   ar
    37    30    23    1
    38    20    21    1
@<TRIPOS>MOLECULE
*****
 34 38 0 0 0
SMALL
GASTEIGER

@<TRIPOS>ATOM
      1 C         142.9516  138.3245  158.4591 C.ar    1  UNL1        0.1074
      2 C         142.9318  139.7846  158.1161 C.ar    1  UNL1        0.0588
      3 S         143.3564  140.5523  159.3328 S.2     1  UNL1       -0.0508
      4 C         143.6385  139.5667  160.4277 C.ar    1  UNL1        0.1646
      5 N         143.3883  138.1898  159.8877 N.ar    1  UNL1       -0.2224
      6 C         143.1083  134.8462  156.5546 C.ar    1  UNL1        0.2416
      7 N         143.4631  135.9737  157.4782 N.ar    1  UNL1       -0.2089
      8 C         142.5969  137.1970  157.5356 C.ar    1  UNL1        0.1026
      9 C         141.3760  137.2928  156.6694 C.ar    1  UNL1        0.0224
     10 C         141.0212  136.1653  155.7458 C.ar    1  UNL1        0.0239
     11 C         141.8874  134.9420  155.6885 C.ar    1  UNL1        0.1189
     12 N         141.5327  133.8145  154.7649 N.ar    1  UNL1       -0.2826
     13 C         141.5826  133.8534  153.2662 C.ar    1  UNL1        0.1826
     14 N         141.1466  132.5132  152.7529 N.ar    1  UNL1       -0.2280
     15 C         140.8272  131.6458  153.9345 C.ar    1  UNL1        0.0786
     16 C         140.3526  130.2239  153.8817 C.3     1  UNL1        0.0538
     17 C         141.0659  132.4502  155.1779 C.ar    1  UNL1        0.0963
     18 C         144.5440  133.0473  157.7599 C.3     1  UNL1        0.2543
     19 O         143.9745  133.6230  156.4972 O.3     1  UNL1       -0.4551
     20 N         144.0913  139.8995  161.8185 N.pl3   1  UNL1       -0.2786
     21 H         144.9759  139.6026  162.1325 H       1  UNL1        0.1555
     22 C         143.1963  140.6848  162.7309 C.ar    1  UNL1        0.1274
     23 C         143.2695  142.1620  162.9808 C.ar    1  UNL1        0.0244
     24 C         142.1894  142.5208  163.9579 C.ar    1  UNL1        0.0773
     25 N         141.4488  141.2654  164.3119 N.ar    1  UNL1       -0.1730
     26 N         142.0711  140.1306  163.5536 N.ar    1  UNL1       -0.2420
     27 C         142.0199  143.9444  164.3991 C.3     1  UNL1        0.0474
     28 C         142.9304  145.0091  163.8631 C.3     1  UNL1        0.0067
     29 C         144.0105  144.6503  162.8860 C.3     1  UNL1        0.0052
     30 C         144.1800  143.2267  162.4449 C.3     1  UNL1        0.0305
     31 C         141.6433  138.6940  163.6083 C.3     1  UNL1        0.0879
     32 C         140.6843  138.9366  162.4807 C.3     1  UNL1        0.0245
     33 C         142.6022  138.4513  164.7359 C.3     1  UNL1        0.0245
     34 C         141.2154  137.2573  163.6630 C.3     1  UNL1        0.0245
@<TRIPOS>BOND
     1    18    19    1
     2    19     6    1
     3     6     7   ar
     4     7     8   ar
     5     8     1    1
     6     1     2   ar
     7     2     3   ar
     8     3     4   ar
     9     4    20    1
    10    20    22    1
    11    22    23   ar
    12    23    24   ar
    13    24    25   ar
    14    25    26   ar
    15    26    31    1
    16    31    32    1
    17    31    33    1
    18    31    34    1
    19    24    27    1
    20    27    28    1
    21    28    29    1
    22    29    30    1
    23     4     5   ar
    24     8     9   ar
    25     9    10   ar
    26    10    11   ar
    27    11    12    1
    28    12    13   ar
    29    13    14   ar
    30    14    15   ar
    31    15    16    1
    32    15    17   ar
    33    11     6   ar
    34    17    12   ar
    35     5     1   ar
    36    26    22   ar
    37    30    23    1
    38    20    21    1
@<TRIPOS>MOLECULE
*****
 34 38 0 0 0
SMALL
GASTEIGER

@<TRIPOS>ATOM
      1 C         142.7520  143.7952  162.8599 C.ar    1  UNL1        0.1074
      2 C         143.7026  144.6556  163.6384 C.ar    1  UNL1        0.0588
      3 S         144.0995  143.9059  164.8755 S.2     1  UNL1       -0.0508
      4 C         143.3942  142.5821  164.8615 C.ar    1  UNL1        0.1646
      5 N         142.5614  142.5137  163.6159 N.ar    1  UNL1       -0.2224
      6 C         142.1420  144.1755  158.9569 C.ar    1  UNL1        0.2416
      7 N         142.7886  143.8172  160.2622 N.ar    1  UNL1       -0.2089
      8 C         142.1055  144.1534  161.5547 C.ar    1  UNL1        0.1026
      9 C         140.7759  144.8477  161.5419 C.ar    1  UNL1        0.0224
     10 C         140.1294  145.2058  160.2365 C.ar    1  UNL1        0.0239
     11 C         140.8125  144.8697  158.9441 C.ar    1  UNL1        0.1189
     12 N         140.1659  145.2279  157.6389 N.ar    1  UNL1       -0.2826
     13 C         139.4119  144.2912  156.7420 C.ar    1  UNL1        0.1826
     14 N         138.9399  145.0700  155.5502 N.ar    1  UNL1       -0.2280
     15 C         139.4022  146.4881  155.7103 C.ar    1  UNL1        0.0786
     16 C         139.1508  147.6113  154.7484 C.3     1  UNL1        0.0538
     17 C         140.1599  146.5856  157.0012 C.ar    1  UNL1        0.0963
     18 C         142.6759  142.4697  157.0714 C.3     1  UNL1        0.2543
     19 O         142.8250  143.8393  157.6645 O.3     1  UNL1       -0.4551
     20 N         143.5027  141.5142  165.9094 N.pl3   1  UNL1       -0.2786
     21 H         144.3850  141.1518  166.1534 H       1  UNL1        0.1555
     22 C         142.2670  140.9985  166.5854 C.ar    1  UNL1        0.1274
     23 C         141.6413  141.5611  167.8271 C.ar    1  UNL1        0.0244
     24 C         140.4276  140.7400  168.1475 C.ar    1  UNL1        0.0773
     25 N         140.3032  139.6698  167.1038 N.ar    1  UNL1       -0.1730
     26 N         141.4400  139.8296  166.1383 N.ar    1  UNL1       -0.2420
     27 C         139.5925  141.0728  169.3482 C.3     1  UNL1        0.0474
     28 C         139.9710  142.2268  170.2286 C.3     1  UNL1        0.0067
     29 C         141.1847  143.0479  169.9081 C.3     1  UNL1        0.0052
     30 C         142.0198  142.7151  168.7074 C.3     1  UNL1        0.0305
     31 C         141.7036  138.9712  164.9368 C.3     1  UNL1        0.0879
     32 C         140.5915  139.6587  164.2017 C.3     1  UNL1        0.0245
     33 C         142.8158  138.2837  165.6720 C.3     1  UNL1        0.0245
     34 C         141.9672  138.1128  163.7353 C.3     1  UNL1        0.0245
@<TRIPOS>BOND
     1    18    19    1
     2    19     6    1
     3     6     7   ar
     4     7     8   ar
     5     8     1    1
     6     1     2   ar
     7     2     3   ar
     8     3     4   ar
     9     4    20    1
    10    20    22    1
    11    22    23   ar
    12    23    24   ar
    13    24    25   ar
    14    25    26   ar
    15    26    31    1
    16    31    32    1
    17    31    33    1
    18    31    34    1
    19    24    27    1
    20    27    28    1
    21    28    29    1
    22    29    30    1
    23     4     5   ar
    24     8     9   ar
    25     9    10   ar
    26    10    11   ar
    27    11    12    1
    28    12    13   ar
    29    13    14   ar
    30    14    15   ar
    31    15    16    1
    32    15    17   ar
    33    11     6   ar
    34    17    12   ar
    35     5     1   ar
    36    26    22   ar
    37    30    23    1
    38    20    21    1
@<TRIPOS>MOLECULE
*****
 34 38 0 0 0
SMALL
GASTEIGER

@<TRIPOS>ATOM
      1 C         139.4331  143.7505  162.1104 C.ar    1  UNL1        0.1074
      2 C         138.1112  144.0339  162.7601 C.ar    1  UNL1        0.0588
      3 S         138.1577  143.4957  164.1595 S.2     1  UNL1       -0.0508
      4 C         139.5084  142.8798  164.3746 C.ar    1  UNL1        0.1646
      5 N         140.2967  143.0373  163.1081 N.ar    1  UNL1       -0.2224
      6 C         139.5274  143.8295  158.1436 C.ar    1  UNL1        0.2416
      7 N         139.1374  143.4637  159.5451 N.ar    1  UNL1       -0.2089
      8 C         139.8230  144.1162  160.7089 C.ar    1  UNL1        0.1026
      9 C         140.8986  145.1344  160.4711 C.ar    1  UNL1        0.0224
     10 C         141.2885  145.5001  159.0695 C.ar    1  UNL1        0.0239
     11 C         140.6029  144.8476  157.9058 C.ar    1  UNL1        0.1189
     12 N         140.9928  145.2133  156.5043 N.ar    1  UNL1       -0.2826
     13 C         142.0732  144.5633  155.6916 C.ar    1  UNL1        0.1826
     14 N         142.1189  145.2414  154.3545 N.ar    1  UNL1       -0.2280
     15 C         141.0667  146.3106  154.3407 C.ar    1  UNL1        0.0786
     16 C         140.7638  147.2347  153.1987 C.3     1  UNL1        0.0538
     17 C         140.3708  146.2931  155.6694 C.ar    1  UNL1        0.0963
     18 C         137.5050  142.5229  157.1675 C.3     1  UNL1        0.2543
     19 O         138.8418  143.1770  156.9799 O.3     1  UNL1       -0.4551
     20 N         139.9869  142.2219  165.6349 N.pl3   1  UNL1       -0.2786
     21 H         139.7281  142.5893  166.5108 H       1  UNL1        0.1555
     22 C         140.8598  141.0043  165.5605 C.ar    1  UNL1        0.1274
     23 C         142.2932  140.9726  165.1198 C.ar    1  UNL1        0.0244
     24 C         142.7718  139.5533  165.2007 C.ar    1  UNL1        0.0773
     25 N         141.6341  138.7078  165.6915 N.ar    1  UNL1       -0.1730
     26 N         140.4524  139.6046  165.9139 N.ar    1  UNL1       -0.2420
     27 C         144.1816  139.2142  164.8171 C.3     1  UNL1        0.0474
     28 C         145.1129  140.2944  164.3525 C.3     1  UNL1        0.0067
     29 C         144.6344  141.7137  164.2716 C.3     1  UNL1        0.0052
     30 C         143.2245  142.0528  164.6553 C.3     1  UNL1        0.0305
     31 C         139.1007  139.1767  166.4036 C.3     1  UNL1        0.0879
     32 C         138.7831  138.6253  165.0452 C.3     1  UNL1        0.0245
     33 C         139.4183  139.7281  167.7619 C.3     1  UNL1        0.0245
     34 C         137.7490  138.7489  166.8933 C.3     1  UNL1        0.0245
@<TRIPOS>BOND
     1    18    19    1
     2    19     6    1
     3     6     7   ar
     4     7     8   ar
     5     8     1    1
     6     1     2   ar
     7     2     3   ar
     8     3     4   ar
     9     4    20    1
    10    20    22    1
    11    22    23   ar
    12    23    24   ar
    13    24    25   ar
    14    25    26   ar
    15    26    31    1
    16    31    32    1
    17    31    33    1
    18    31    34    1
    19    24    27    1
    20    27    28    1
    21    28    29    1
    22    29    30    1
    23     4     5   ar
    24     8     9   ar
    25     9    10   ar
    26    10    11   ar
    27    11    12    1
    28    12    13   ar
    29    13    14   ar
    30    14    15   ar
    31    15    16    1
    32    15    17   ar
    33    11     6   ar
    34    17    12   ar
    35     5     1   ar
    36    26    22   ar
    37    30    23    1
    38    20    21    1
@<TRIPOS>MOLECULE
*****
 34 38 0 0 0
SMALL
GASTEIGER

@<TRIPOS>ATOM
      1 C         142.9744  138.4989  158.2999 C.ar    1  UNL1        0.1074
      2 C         142.9585  139.9485  157.9149 C.ar    1  UNL1        0.0588
      3 S         143.3957  140.7491  159.1057 S.2     1  UNL1       -0.0508
      4 C         143.6818  139.7943  160.2266 C.ar    1  UNL1        0.1646
      5 N         143.4214  138.4035  159.7286 N.ar    1  UNL1       -0.2224
      6 C         143.1128  134.9750  156.4797 C.ar    1  UNL1        0.2416
      7 N         143.4796  136.1270  157.3676 N.ar    1  UNL1       -0.2089
      8 C         142.6077  137.3468  157.4121 C.ar    1  UNL1        0.1026
      9 C         141.3691  137.4145  156.5687 C.ar    1  UNL1        0.0224
     10 C         141.0024  136.2624  155.6808 C.ar    1  UNL1        0.0239
     11 C         141.8743  135.0426  155.6364 C.ar    1  UNL1        0.1189
     12 N         141.5076  133.8906  154.7485 N.ar    1  UNL1       -0.2826
     13 C         141.4856  133.9054  153.2487 C.ar    1  UNL1        0.1826
     14 N         141.0629  132.5455  152.7778 N.ar    1  UNL1       -0.2280
     15 C         140.8237  131.6900  153.9867 C.ar    1  UNL1        0.0786
     16 C         140.3864  130.2552  153.9788 C.3     1  UNL1        0.0538
     17 C         141.0985  132.5214  155.2046 C.ar    1  UNL1        0.0963
     18 C         144.4338  133.1074  157.7115 C.3     1  UNL1        0.2543
     19 O         143.9847  133.7552  156.4353 O.3     1  UNL1       -0.4551
     20 N         144.1466  140.1651  161.6038 N.pl3   1  UNL1       -0.2786
     21 H         145.1089  140.2579  161.7901 H       1  UNL1        0.1555
     22 C         143.1454  140.3943  162.6969 C.ar    1  UNL1        0.1274
     23 C         142.2552  139.3540  163.3095 C.ar    1  UNL1        0.0244
     24 C         141.4182  140.0209  164.3606 C.ar    1  UNL1        0.0773
     25 N         141.7911  141.4733  164.3975 N.ar    1  UNL1       -0.1730
     26 N         142.8586  141.7041  163.3693 N.ar    1  UNL1       -0.2420
     27 C         140.4246  139.2194  165.1482 C.3     1  UNL1        0.0474
     28 C         140.2680  137.7511  164.8847 C.3     1  UNL1        0.0067
     29 C         141.1050  137.0842  163.8336 C.3     1  UNL1        0.0052
     30 C         142.0986  137.8857  163.0460 C.3     1  UNL1        0.0305
     31 C         143.5227  143.0146  163.0667 C.3     1  UNL1        0.0879
     32 C         144.5529  142.7360  164.1208 C.3     1  UNL1        0.0245
     33 C         142.4925  143.2933  162.0126 C.3     1  UNL1        0.0245
     34 C         144.1868  144.3251  162.7641 C.3     1  UNL1        0.0245
@<TRIPOS>BOND
     1    18    19    1
     2    19     6    1
     3     6     7   ar
     4     7     8   ar
     5     8     1    1
     6     1     2   ar
     7     2     3   ar
     8     3     4   ar
     9     4    20    1
    10    20    22    1
    11    22    23   ar
    12    23    24   ar
    13    24    25   ar
    14    25    26   ar
    15    26    31    1
    16    31    32    1
    17    31    33    1
    18    31    34    1
    19    24    27    1
    20    27    28    1
    21    28    29    1
    22    29    30    1
    23     4     5   ar
    24     8     9   ar
    25     9    10   ar
    26    10    11   ar
    27    11    12    1
    28    12    13   ar
    29    13    14   ar
    30    14    15   ar
    31    15    16    1
    32    15    17   ar
    33    11     6   ar
    34    17    12   ar
    35     5     1   ar
    36    26    22   ar
    37    30    23    1
    38    20    21    1
@<TRIPOS>MOLECULE
*****
 34 38 0 0 0
SMALL
GASTEIGER

@<TRIPOS>ATOM
      1 C         139.0744  142.8678  162.6724 C.ar    1  UNL1        0.1074
      2 C         138.6488  144.1882  163.2428 C.ar    1  UNL1        0.0588
      3 S         139.2172  144.3001  164.6265 S.2     1  UNL1       -0.0508
      4 C         139.9940  143.0489  164.9110 C.ar    1  UNL1        0.1646
      5 N         139.9058  142.1637  163.7033 N.ar    1  UNL1       -0.2224
      6 C         138.6154  142.6716  158.7352 C.ar    1  UNL1        0.2416
      7 N         138.9606  143.1959  160.0975 N.ar    1  UNL1       -0.2089
      8 C         138.7291  142.3436  161.3100 C.ar    1  UNL1        0.1026
      9 C         138.1524  140.9670  161.1601 C.ar    1  UNL1        0.0224
     10 C         137.8072  140.4428  159.7976 C.ar    1  UNL1        0.0239
     11 C         138.0387  141.2951  158.5853 C.ar    1  UNL1        0.1189
     12 N         137.6934  140.7709  157.2229 N.ar    1  UNL1       -0.2826
     13 C         138.6067  139.9980  156.3180 C.ar    1  UNL1        0.1826
     14 N         137.8521  139.6770  155.0622 N.ar    1  UNL1       -0.2280
     15 C         136.4723  140.2514  155.1907 C.ar    1  UNL1        0.0786
     16 C         135.3821  140.1649  154.1642 C.3     1  UNL1        0.0538
     17 C         136.3744  140.9275  156.5262 C.ar    1  UNL1        0.0963
     18 C         139.9486  144.5419  157.5209 C.3     1  UNL1        0.2543
     19 O         138.8469  143.5240  157.5228 O.3     1  UNL1       -0.4551
     20 N         140.7300  142.7375  166.1806 N.pl3   1  UNL1       -0.2786
     21 H         140.7032  143.3716  166.9332 H       1  UNL1        0.1555
     22 C         141.5068  141.4602  166.3032 C.ar    1  UNL1        0.1274
     23 C         142.6901  141.0646  165.4706 C.ar    1  UNL1        0.0244
     24 C         143.1513  139.7141  165.9327 C.ar    1  UNL1        0.0773
     25 N         142.2529  139.2751  167.0509 N.ar    1  UNL1       -0.1730
     26 N         141.2365  140.3542  167.2798 N.ar    1  UNL1       -0.2420
     27 C         144.3296  139.0586  165.2757 C.3     1  UNL1        0.0474
     28 C         145.0468  139.7535  164.1566 C.3     1  UNL1        0.0067
     29 C         144.5857  141.1040  163.6944 C.3     1  UNL1        0.0052
     30 C         143.4074  141.7595  164.3515 C.3     1  UNL1        0.0305
     31 C         140.1421  140.3314  168.3053 C.3     1  UNL1        0.0879
     32 C         141.0645  140.9654  169.3039 C.3     1  UNL1        0.0245
     33 C         139.2196  139.6975  167.3068 C.3     1  UNL1        0.0245
     34 C         139.0476  140.3087  169.3308 C.3     1  UNL1        0.0245
@<TRIPOS>BOND
     1    18    19    1
     2    19     6    1
     3     6     7   ar
     4     7     8   ar
     5     8     1    1
     6     1     2   ar
     7     2     3   ar
     8     3     4   ar
     9     4    20    1
    10    20    22    1
    11    22    23   ar
    12    23    24   ar
    13    24    25   ar
    14    25    26   ar
    15    26    31    1
    16    31    32    1
    17    31    33    1
    18    31    34    1
    19    24    27    1
    20    27    28    1
    21    28    29    1
    22    29    30    1
    23     4     5   ar
    24     8     9   ar
    25     9    10   ar
    26    10    11   ar
    27    11    12    1
    28    12    13   ar
    29    13    14   ar
    30    14    15   ar
    31    15    16    1
    32    15    17   ar
    33    11     6   ar
    34    17    12   ar
    35     5     1   ar
    36    26    22   ar
    37    30    23    1
    38    20    21    1
