@<TRIPOS>MOLECULE
*****
 34 36 0 0 0
SMALL
GASTEIGER

@<TRIPOS>ATOM
      1 S         140.2521  138.3812  162.2547 S.O2    1  UNL1        0.0768
      2 O         139.4990  139.6339  161.9179 O.2     1  UNL1       -0.1498
      3 O         141.0053  137.1285  162.5915 O.2     1  UNL1       -0.1498
      4 O         141.7024  140.1082  164.2332 O.2     1  UNL1       -0.2509
      5 C         140.4911  139.3333  164.6603 C.2     1  UNL1        0.3231
      6 N         140.0050  139.4218  166.0765 N.am    1  UNL1       -0.2671
      7 N         139.7660  138.4698  163.6710 N.am    1  UNL1       -0.1690
      8 H         139.2100  138.9132  166.3568 H       1  UNL1        0.1565
      9 H         138.9710  137.9612  163.9512 H       1  UNL1        0.1781
     10 C         140.7301  140.2853  167.0658 C.ar    1  UNL1        0.0516
     11 C         141.9446  139.7594  167.7719 C.ar    1  UNL1        0.0147
     12 C         142.6696  140.6229  168.7611 C.ar    1  UNL1        0.0051
     13 C         142.1803  142.0123  169.0443 C.ar    1  UNL1        0.0715
     14 C         140.9658  142.5381  168.3382 C.ar    1  UNL1        0.0051
     15 C         140.2408  141.6747  167.3490 C.ar    1  UNL1        0.0147
     16 C         142.9054  142.8758  170.0336 C.3     1  UNL1        0.4186
     17 F         143.6305  143.7392  171.0228 F       1  UNL1       -0.1659
     18 F         141.7152  143.7852  170.1122 F       1  UNL1       -0.1659
     19 F         144.0956  141.9663  169.9549 F       1  UNL1       -0.1659
     20 C         140.7383  138.2927  160.8385 C.ar    1  UNL1        0.1255
     21 C         142.1801  137.9885  160.5580 C.ar    1  UNL1        0.0233
     22 C         142.6662  137.9000  159.1417 C.ar    1  UNL1        0.0383
     23 C         141.7105  138.1156  158.0059 C.ar    1  UNL1        0.1386
     24 C         140.2687  138.4198  158.2863 C.ar    1  UNL1        0.0383
     25 C         139.7826  138.5084  159.7026 C.ar    1  UNL1        0.0233
     26 O         142.1967  138.0271  156.5897 O.3     1  UNL1       -0.4754
     27 C         143.2909  137.0658  156.2310 C.3     1  UNL1        0.2068
     28 C         142.9717  135.8210  155.4571 C.3     1  UNL1        0.0646
     29 C         142.5373  134.5799  156.1788 C.3     1  UNL1        0.0759
     30 N         143.5517  133.5479  156.5735 N.3     1  UNL1       -0.2726
     31 C         144.2812  133.4843  157.8826 C.3     1  UNL1        0.0721
     32 C         145.1950  132.2954  157.8467 C.3     1  UNL1        0.0188
     33 C         145.0304  131.6242  156.5153 C.3     1  UNL1        0.0188
     34 C         144.0147  132.3983  155.7285 C.3     1  UNL1        0.0721
@<TRIPOS>BOND
     1     4     5    2
     2     5     6   am
     3     6    10    1
     4    10    11   ar
     5    11    12   ar
     6    12    13   ar
     7    13    16    1
     8    16    17    1
     9    16    18    1
    10    16    19    1
    11    13    14   ar
    12    14    15   ar
    13     5     7   am
    14     7     1    1
    15     1     2    2
    16     1     3    2
    17     1    20    1
    18    20    21   ar
    19    21    22   ar
    20    22    23   ar
    21    23    26    1
    22    26    27    1
    23    27    28    1
    24    28    29    1
    25    29    30    1
    26    30    31    1
    27    31    32    1
    28    32    33    1
    29    33    34    1
    30    23    24   ar
    31    24    25   ar
    32    15    10   ar
    33    25    20   ar
    34    34    30    1
    35     6     8    1
    36     7     9    1
@<TRIPOS>MOLECULE
*****
 34 36 0 0 0
SMALL
GASTEIGER

@<TRIPOS>ATOM
      1 S         142.0698  138.1465  162.0440 S.O2    1  UNL1        0.0768
      2 O         143.2222  139.0777  161.8106 O.2     1  UNL1       -0.1498
      3 O         140.9173  137.2152  162.2774 O.2     1  UNL1       -0.1498
      4 O         140.9480  140.0796  164.0451 O.2     1  UNL1       -0.2509
      5 C         141.8915  139.0020  164.4907 C.2     1  UNL1        0.3231
      6 N         142.2741  138.8910  165.9368 N.am    1  UNL1       -0.2671
      7 N         142.4524  138.0354  163.4901 N.am    1  UNL1       -0.1690
      8 H         142.8934  138.1837  166.2292 H       1  UNL1        0.1565
      9 H         143.0717  137.3281  163.7825 H       1  UNL1        0.1781
     10 C         141.7132  139.8576  166.9374 C.ar    1  UNL1        0.0516
     11 C         142.5892  140.9268  167.5199 C.ar    1  UNL1        0.0147
     12 C         142.0283  141.8933  168.5205 C.ar    1  UNL1        0.0051
     13 C         140.5914  141.7906  168.9385 C.ar    1  UNL1        0.0715
     14 C         139.7154  140.7214  168.3560 C.ar    1  UNL1        0.0051
     15 C         140.2763  139.7549  167.3554 C.ar    1  UNL1        0.0147
     16 C         140.0305  142.7572  169.9391 C.3     1  UNL1        0.4186
     17 F         139.4697  143.7238  170.9397 F       1  UNL1       -0.1659
     18 F         138.9815  141.7548  170.3195 F       1  UNL1       -0.1659
     19 F         141.0796  143.7596  169.5588 F       1  UNL1       -0.1659
     20 C         141.6872  138.2575  160.5979 C.ar    1  UNL1        0.1255
     21 C         140.2529  138.4745  160.2161 C.ar    1  UNL1        0.0233
     22 C         139.8703  138.5855  158.7699 C.ar    1  UNL1        0.0383
     23 C         140.9219  138.4796  157.7056 C.ar    1  UNL1        0.1386
     24 C         142.3562  138.2626  158.0874 C.ar    1  UNL1        0.0383
     25 C         142.7388  138.1516  159.5335 C.ar    1  UNL1        0.0233
     26 O         140.5393  138.5906  156.2595 O.3     1  UNL1       -0.4754
     27 C         140.2046  137.3565  155.4754 C.3     1  UNL1        0.2068
     28 C         141.3002  136.4445  155.0083 C.3     1  UNL1        0.0646
     29 C         141.1489  134.9586  155.1463 C.3     1  UNL1        0.0759
     30 N         142.1172  134.1811  155.9877 N.3     1  UNL1       -0.2726
     31 C         142.2879  132.6909  155.9859 C.3     1  UNL1        0.0721
     32 C         143.3609  132.3460  156.9757 C.3     1  UNL1        0.0188
     33 C         143.8534  133.6232  157.5893 C.3     1  UNL1        0.0188
     34 C         143.0847  134.7573  156.9787 C.3     1  UNL1        0.0721
@<TRIPOS>BOND
     1     4     5    2
     2     5     6   am
     3     6    10    1
     4    10    11   ar
     5    11    12   ar
     6    12    13   ar
     7    13    16    1
     8    16    17    1
     9    16    18    1
    10    16    19    1
    11    13    14   ar
    12    14    15   ar
    13     5     7   am
    14     7     1    1
    15     1     2    2
    16     1     3    2
    17     1    20    1
    18    20    21   ar
    19    21    22   ar
    20    22    23   ar
    21    23    26    1
    22    26    27    1
    23    27    28    1
    24    28    29    1
    25    29    30    1
    26    30    31    1
    27    31    32    1
    28    32    33    1
    29    33    34    1
    30    23    24   ar
    31    24    25   ar
    32    15    10   ar
    33    25    20   ar
    34    34    30    1
    35     6     8    1
    36     7     9    1
@<TRIPOS>MOLECULE
*****
 34 36 0 0 0
SMALL
GASTEIGER

@<TRIPOS>ATOM
      1 S         139.6094  138.8190  160.9578 S.O2    1  UNL1        0.0768
      2 O         138.9970  140.0297  160.3182 O.2     1  UNL1       -0.1498
      3 O         140.2218  137.6083  161.5974 O.2     1  UNL1       -0.1498
      4 O         140.8937  140.2985  163.2297 O.2     1  UNL1       -0.2509
      5 C         139.4742  139.8283  163.3480 C.2     1  UNL1        0.3231
      6 N         138.6969  140.0977  164.6023 N.am    1  UNL1       -0.2671
      7 N         138.8321  139.0885  162.2120 N.am    1  UNL1       -0.1690
      8 H         137.7653  139.7891  164.6799 H       1  UNL1        0.1565
      9 H         137.9005  138.7798  162.2897 H       1  UNL1        0.1781
     10 C         139.3391  140.8375  165.7383 C.ar    1  UNL1        0.0516
     11 C         139.6393  142.3011  165.6058 C.ar    1  UNL1        0.0147
     12 C         140.2814  143.0408  166.7418 C.ar    1  UNL1        0.0051
     13 C         140.6233  142.3169  168.0102 C.ar    1  UNL1        0.0715
     14 C         140.3231  140.8533  168.1427 C.ar    1  UNL1        0.0051
     15 C         139.6810  140.1136  167.0068 C.ar    1  UNL1        0.0147
     16 C         141.2655  143.0567  169.1463 C.3     1  UNL1        0.4186
     17 F         141.9075  143.7964  170.2822 F       1  UNL1       -0.1659
     18 F         142.6107  142.5538  168.7134 F       1  UNL1       -0.1659
     19 F         139.9202  143.5595  169.5791 F       1  UNL1       -0.1659
     20 C         140.3867  138.5495  159.7036 C.ar    1  UNL1        0.1255
     21 C         141.8698  138.3353  159.7717 C.ar    1  UNL1        0.0233
     22 C         142.6471  138.0658  158.5174 C.ar    1  UNL1        0.0383
     23 C         141.9413  138.0106  157.1950 C.ar    1  UNL1        0.1386
     24 C         140.4583  138.2248  157.1268 C.ar    1  UNL1        0.0383
     25 C         139.6810  138.4943  158.3811 C.ar    1  UNL1        0.0233
     26 O         142.7186  137.7411  155.9408 O.3     1  UNL1       -0.4754
     27 C         142.8472  136.3385  155.4248 C.3     1  UNL1        0.2068
     28 C         143.8094  135.3867  156.0716 C.3     1  UNL1        0.0646
     29 C         143.3841  134.5874  157.2675 C.3     1  UNL1        0.0759
     30 N         143.7236  133.1290  157.3542 N.3     1  UNL1       -0.2726
     31 C         144.9692  132.5480  157.9549 C.3     1  UNL1        0.0721
     32 C         144.8927  131.0554  157.8274 C.3     1  UNL1        0.0188
     33 C         143.5997  130.7139  157.1479 C.3     1  UNL1        0.0188
     34 C         142.8773  131.9954  156.8555 C.3     1  UNL1        0.0721
@<TRIPOS>BOND
     1     4     5    2
     2     5     6   am
     3     6    10    1
     4    10    11   ar
     5    11    12   ar
     6    12    13   ar
     7    13    16    1
     8    16    17    1
     9    16    18    1
    10    16    19    1
    11    13    14   ar
    12    14    15   ar
    13     5     7   am
    14     7     1    1
    15     1     2    2
    16     1     3    2
    17     1    20    1
    18    20    21   ar
    19    21    22   ar
    20    22    23   ar
    21    23    26    1
    22    26    27    1
    23    27    28    1
    24    28    29    1
    25    29    30    1
    26    30    31    1
    27    31    32    1
    28    32    33    1
    29    33    34    1
    30    23    24   ar
    31    24    25   ar
    32    15    10   ar
    33    25    20   ar
    34    34    30    1
    35     6     8    1
    36     7     9    1
@<TRIPOS>MOLECULE
*****
 34 36 0 0 0
SMALL
GASTEIGER

@<TRIPOS>ATOM
      1 S         143.7493  139.1428  162.3398 S.O2    1  UNL1        0.0768
      2 O         144.6997  140.2996  162.2479 O.2     1  UNL1       -0.1498
      3 O         142.7989  137.9860  162.4318 O.2     1  UNL1       -0.1498
      4 O         142.0516  140.7031  164.2590 O.2     1  UNL1       -0.2509
      5 C         143.1567  139.8296  164.7744 C.2     1  UNL1        0.3231
      6 N         143.4130  139.7362  166.2494 N.am    1  UNL1       -0.2671
      7 N         144.0056  139.0495  163.8148 N.am    1  UNL1       -0.1690
      8 H         144.1384  139.1629  166.5877 H       1  UNL1        0.1565
      9 H         144.7310  138.4762  164.1531 H       1  UNL1        0.1781
     10 C         142.5642  140.5164  167.2090 C.ar    1  UNL1        0.0516
     11 C         141.1819  140.0408  167.5452 C.ar    1  UNL1        0.0147
     12 C         140.3331  140.8210  168.5048 C.ar    1  UNL1        0.0051
     13 C         140.8665  142.0766  169.1282 C.ar    1  UNL1        0.0715
     14 C         142.2488  142.5522  168.7921 C.ar    1  UNL1        0.0051
     15 C         143.0976  141.7721  167.8325 C.ar    1  UNL1        0.0147
     16 C         140.0177  142.8568  170.0879 C.3     1  UNL1        0.4186
     17 F         139.1688  143.6369  171.0475 F       1  UNL1       -0.1659
     18 F         139.1151  141.6703  170.2541 F       1  UNL1       -0.1659
     19 F         140.9202  144.0432  169.9217 F       1  UNL1       -0.1659
     20 C         143.4930  139.2362  160.8649 C.ar    1  UNL1        0.1255
     21 C         143.8295  140.4959  160.1234 C.ar    1  UNL1        0.0233
     22 C         143.5731  140.5893  158.6484 C.ar    1  UNL1        0.0383
     23 C         142.9804  139.4228  157.9149 C.ar    1  UNL1        0.1386
     24 C         142.6440  138.1631  158.6563 C.ar    1  UNL1        0.0383
     25 C         142.9003  138.0697  160.1313 C.ar    1  UNL1        0.0233
     26 O         142.7241  139.5162  156.4399 O.3     1  UNL1       -0.4754
     27 C         143.5477  138.7065  155.4828 C.3     1  UNL1        0.2068
     28 C         143.1840  137.2786  155.2023 C.3     1  UNL1        0.0646
     29 C         144.1105  136.1736  155.6154 C.3     1  UNL1        0.0759
     30 N         143.5744  134.7916  155.8446 N.3     1  UNL1       -0.2726
     31 C         143.6278  134.0278  157.1345 C.3     1  UNL1        0.0721
     32 C         142.9771  132.6949  156.9113 C.3     1  UNL1        0.0188
     33 C         142.5215  132.6348  155.4834 C.3     1  UNL1        0.0188
     34 C         142.8906  133.9306  154.8242 C.3     1  UNL1        0.0721
@<TRIPOS>BOND
     1     4     5    2
     2     5     6   am
     3     6    10    1
     4    10    11   ar
     5    11    12   ar
     6    12    13   ar
     7    13    16    1
     8    16    17    1
     9    16    18    1
    10    16    19    1
    11    13    14   ar
    12    14    15   ar
    13     5     7   am
    14     7     1    1
    15     1     2    2
    16     1     3    2
    17     1    20    1
    18    20    21   ar
    19    21    22   ar
    20    22    23   ar
    21    23    26    1
    22    26    27    1
    23    27    28    1
    24    28    29    1
    25    29    30    1
    26    30    31    1
    27    31    32    1
    28    32    33    1
    29    33    34    1
    30    23    24   ar
    31    24    25   ar
    32    15    10   ar
    33    25    20   ar
    34    34    30    1
    35     6     8    1
    36     7     9    1
@<TRIPOS>MOLECULE
*****
 34 36 0 0 0
SMALL
GASTEIGER

@<TRIPOS>ATOM
      1 S         143.9778  140.2306  162.0361 S.O2    1  UNL1        0.0768
      2 O         142.7400  139.4390  161.7341 O.2     1  UNL1       -0.1498
      3 O         145.2156  141.0221  162.3381 O.2     1  UNL1       -0.1498
      4 O         142.3940  141.6803  164.1314 O.2     1  UNL1       -0.2509
      5 C         143.1667  140.4471  164.4949 C.2     1  UNL1        0.3231
      6 N         143.1475  139.9387  165.9059 N.am    1  UNL1       -0.2671
      7 N         143.9586  139.7222  163.4472 N.am    1  UNL1       -0.1690
      8 H         143.6547  139.1293  166.1445 H       1  UNL1        0.1565
      9 H         144.4658  138.9128  163.6858 H       1  UNL1        0.1781
     10 C         142.3556  140.6636  166.9536 C.ar    1  UNL1        0.0516
     11 C         142.9786  141.7958  167.7150 C.ar    1  UNL1        0.0147
     12 C         142.1867  142.5206  168.7626 C.ar    1  UNL1        0.0051
     13 C         140.7717  142.1131  169.0488 C.ar    1  UNL1        0.0715
     14 C         140.1487  140.9809  168.2873 C.ar    1  UNL1        0.0051
     15 C         140.9406  140.2561  167.2397 C.ar    1  UNL1        0.0147
     16 C         139.9798  142.8380  170.0964 C.3     1  UNL1        0.4186
     17 F         139.1879  143.5628  171.1440 F       1  UNL1       -0.1659
     18 F         140.8818  144.0280  169.9550 F       1  UNL1       -0.1659
     19 F         139.0778  141.6479  170.2379 F       1  UNL1       -0.1659
     20 C         143.9970  140.7389  160.6251 C.ar    1  UNL1        0.1255
     21 C         144.3403  142.1728  160.3490 C.ar    1  UNL1        0.0233
     22 C         144.3594  142.6811  158.9379 C.ar    1  UNL1        0.0383
     23 C         144.0353  141.7556  157.8028 C.ar    1  UNL1        0.1386
     24 C         143.6920  140.3218  158.0789 C.ar    1  UNL1        0.0383
     25 C         143.6729  139.8134  159.4899 C.ar    1  UNL1        0.0233
     26 O         144.0545  142.2640  156.3918 O.3     1  UNL1       -0.4754
     27 C         144.9185  141.5939  155.3648 C.3     1  UNL1        0.2068
     28 C         146.3108  141.1643  155.7211 C.3     1  UNL1        0.0646
     29 C         147.3811  142.1930  155.9366 C.3     1  UNL1        0.0759
     30 N         148.5872  142.2186  155.0452 N.3     1  UNL1       -0.2726
     31 C         148.6842  142.8999  153.7125 C.3     1  UNL1        0.0721
     32 C         150.0650  142.6698  153.1736 C.3     1  UNL1        0.0188
     33 C         150.8214  141.8461  154.1734 C.3     1  UNL1        0.0188
     34 C         149.9081  141.5673  155.3301 C.3     1  UNL1        0.0721
@<TRIPOS>BOND
     1     4     5    2
     2     5     6   am
     3     6    10    1
     4    10    11   ar
     5    11    12   ar
     6    12    13   ar
     7    13    16    1
     8    16    17    1
     9    16    18    1
    10    16    19    1
    11    13    14   ar
    12    14    15   ar
    13     5     7   am
    14     7     1    1
    15     1     2    2
    16     1     3    2
    17     1    20    1
    18    20    21   ar
    19    21    22   ar
    20    22    23   ar
    21    23    26    1
    22    26    27    1
    23    27    28    1
    24    28    29    1
    25    29    30    1
    26    30    31    1
    27    31    32    1
    28    32    33    1
    29    33    34    1
    30    23    24   ar
    31    24    25   ar
    32    15    10   ar
    33    25    20   ar
    34    34    30    1
    35     6     8    1
    36     7     9    1
@<TRIPOS>MOLECULE
*****
 34 36 0 0 0
SMALL
GASTEIGER

@<TRIPOS>ATOM
      1 S         141.0942  145.0345  159.0663 S.O2    1  UNL1        0.0768
      2 O         142.4545  144.6971  158.5320 O.2     1  UNL1       -0.1498
      3 O         139.7338  145.3720  159.6006 O.2     1  UNL1       -0.1498
      4 O         141.3173  143.2136  161.4400 O.2     1  UNL1       -0.2509
      5 C         141.8283  144.6213  161.5241 C.2     1  UNL1        0.3231
      6 N         142.4508  145.1186  162.7949 N.am    1  UNL1       -0.2671
      7 N         141.7167  145.5318  160.3372 N.am    1  UNL1       -0.1690
      8 H         142.7862  146.0426  162.8501 H       1  UNL1        0.1565
      9 H         142.0521  146.4558  160.3923 H       1  UNL1        0.1781
     10 C         142.5624  144.2081  163.9818 C.ar    1  UNL1        0.0516
     11 C         141.3228  143.6874  164.6467 C.ar    1  UNL1        0.0147
     12 C         141.4344  142.7770  165.8336 C.ar    1  UNL1        0.0051
     13 C         142.7856  142.3873  166.3555 C.ar    1  UNL1        0.0715
     14 C         144.0252  142.9080  165.6905 C.ar    1  UNL1        0.0051
     15 C         143.9136  143.8184  164.5037 C.ar    1  UNL1        0.0147
     16 C         142.8972  141.4768  167.5423 C.3     1  UNL1        0.4186
     17 F         143.0088  140.5664  168.7292 F       1  UNL1       -0.1659
     18 F         142.1229  140.4233  166.8071 F       1  UNL1       -0.1659
     19 F         143.6715  142.5302  168.2776 F       1  UNL1       -0.1659
     20 C         140.4716  144.5372  157.7955 C.ar    1  UNL1        0.1255
     21 C         139.9228  145.5131  156.7972 C.ar    1  UNL1        0.0233
     22 C         139.3002  145.0157  155.5263 C.ar    1  UNL1        0.0383
     23 C         139.2266  143.5425  155.2537 C.ar    1  UNL1        0.1386
     24 C         139.7754  142.5667  156.2519 C.ar    1  UNL1        0.0383
     25 C         140.3980  143.0640  157.5228 C.ar    1  UNL1        0.0233
     26 O         138.6040  143.0452  153.9829 O.3     1  UNL1       -0.4754
     27 C         137.1266  143.1868  153.7660 C.3     1  UNL1        0.2068
     28 C         136.1641  142.4778  154.6722 C.3     1  UNL1        0.0646
     29 C         135.0532  141.6550  154.0901 C.3     1  UNL1        0.0759
     30 N         134.1400  140.8813  154.9940 N.3     1  UNL1       -0.2726
     31 C         134.3716  139.4877  155.4981 C.3     1  UNL1        0.0721
     32 C         133.2096  139.1103  156.3683 C.3     1  UNL1        0.0188
     33 C         132.2596  140.2708  156.4020 C.3     1  UNL1        0.0188
     34 C         132.8347  141.3652  155.5526 C.3     1  UNL1        0.0721
@<TRIPOS>BOND
     1     4     5    2
     2     5     6   am
     3     6    10    1
     4    10    11   ar
     5    11    12   ar
     6    12    13   ar
     7    13    16    1
     8    16    17    1
     9    16    18    1
    10    16    19    1
    11    13    14   ar
    12    14    15   ar
    13     5     7   am
    14     7     1    1
    15     1     2    2
    16     1     3    2
    17     1    20    1
    18    20    21   ar
    19    21    22   ar
    20    22    23   ar
    21    23    26    1
    22    26    27    1
    23    27    28    1
    24    28    29    1
    25    29    30    1
    26    30    31    1
    27    31    32    1
    28    32    33    1
    29    33    34    1
    30    23    24   ar
    31    24    25   ar
    32    15    10   ar
    33    25    20   ar
    34    34    30    1
    35     6     8    1
    36     7     9    1
@<TRIPOS>MOLECULE
*****
 34 36 0 0 0
SMALL
GASTEIGER

@<TRIPOS>ATOM
      1 S         142.1959  138.4421  157.5605 S.O2    1  UNL1        0.0768
      2 O         143.6750  138.6355  157.4029 O.2     1  UNL1       -0.1498
      3 O         140.7168  138.2488  157.7180 O.2     1  UNL1       -0.1498
      4 O         142.5842  137.6828  160.4367 O.2     1  UNL1       -0.2509
      5 C         142.3653  139.1190  160.0631 C.2     1  UNL1        0.3231
      6 N         142.3406  140.1755  161.1276 N.am    1  UNL1       -0.2671
      7 N         142.1712  139.4986  158.6249 N.am    1  UNL1       -0.1690
      8 H         142.1970  141.1181  160.8824 H       1  UNL1        0.1565
      9 H         142.0275  140.4412  158.3797 H       1  UNL1        0.1781
     10 C         142.5348  139.7959  162.5658 C.ar    1  UNL1        0.0516
     11 C         143.9181  139.7145  163.1398 C.ar    1  UNL1        0.0147
     12 C         144.1122  139.3349  164.5779 C.ar    1  UNL1        0.0051
     13 C         142.9229  139.0366  165.4420 C.ar    1  UNL1        0.0715
     14 C         141.5395  139.1180  164.8679 C.ar    1  UNL1        0.0051
     15 C         141.3455  139.4976  163.4298 C.ar    1  UNL1        0.0147
     16 C         143.1171  138.6570  166.8801 C.3     1  UNL1        0.4186
     17 F         143.3112  138.2774  168.3182 F       1  UNL1       -0.1659
     18 F         144.3222  137.8471  166.5037 F       1  UNL1       -0.1659
     19 F         141.9120  139.4669  167.2566 F       1  UNL1       -0.1659
     20 C         142.2206  137.3856  156.4960 C.ar    1  UNL1        0.1255
     21 C         143.5068  136.6921  156.1573 C.ar    1  UNL1        0.0233
     22 C         143.5314  135.6356  155.0927 C.ar    1  UNL1        0.0383
     23 C         142.2699  135.2726  154.3670 C.ar    1  UNL1        0.1386
     24 C         140.9837  135.9661  154.7057 C.ar    1  UNL1        0.0383
     25 C         140.9590  137.0226  155.7702 C.ar    1  UNL1        0.0233
     26 O         142.2946  134.2161  153.3025 O.3     1  UNL1       -0.4754
     27 C         141.1776  133.2194  153.2089 C.3     1  UNL1        0.2068
     28 C         141.3188  131.8720  153.8529 C.3     1  UNL1        0.0646
     29 C         141.4574  131.7635  155.3425 C.3     1  UNL1        0.0759
     30 N         142.8071  131.9015  155.9822 N.3     1  UNL1       -0.2726
     31 C         144.0986  131.3643  155.4405 C.3     1  UNL1        0.0721
     32 C         145.1920  131.7317  156.3994 C.3     1  UNL1        0.0188
     33 C         144.5762  132.4960  157.5338 C.3     1  UNL1        0.0188
     34 C         143.1023  132.6009  157.2759 C.3     1  UNL1        0.0721
@<TRIPOS>BOND
     1     4     5    2
     2     5     6   am
     3     6    10    1
     4    10    11   ar
     5    11    12   ar
     6    12    13   ar
     7    13    16    1
     8    16    17    1
     9    16    18    1
    10    16    19    1
    11    13    14   ar
    12    14    15   ar
    13     5     7   am
    14     7     1    1
    15     1     2    2
    16     1     3    2
    17     1    20    1
    18    20    21   ar
    19    21    22   ar
    20    22    23   ar
    21    23    26    1
    22    26    27    1
    23    27    28    1
    24    28    29    1
    25    29    30    1
    26    30    31    1
    27    31    32    1
    28    32    33    1
    29    33    34    1
    30    23    24   ar
    31    24    25   ar
    32    15    10   ar
    33    25    20   ar
    34    34    30    1
    35     6     8    1
    36     7     9    1
@<TRIPOS>MOLECULE
*****
 34 36 0 0 0
SMALL
GASTEIGER

@<TRIPOS>ATOM
      1 S         143.2532  140.3202  158.9787 S.O2    1  UNL1        0.0768
      2 O         144.2035  139.5683  159.8628 O.2     1  UNL1       -0.1498
      3 O         142.3029  141.0721  158.0947 O.2     1  UNL1       -0.1498
      4 O         142.0890  137.6274  158.3514 O.2     1  UNL1       -0.2509
      5 C         143.1647  138.2015  157.4777 C.2     1  UNL1        0.3231
      6 N         143.6582  137.4292  156.2903 N.am    1  UNL1       -0.2671
      7 N         143.7468  139.5479  157.7914 N.am    1  UNL1       -0.1690
      8 H         144.3642  137.8060  155.7168 H       1  UNL1        0.1565
      9 H         144.4527  139.9247  157.2179 H       1  UNL1        0.1781
     10 C         143.0762  136.0827  155.9766 C.ar    1  UNL1        0.0516
     11 C         141.9741  135.9589  154.9666 C.ar    1  UNL1        0.0147
     12 C         141.3921  134.6125  154.6530 C.ar    1  UNL1        0.0051
     13 C         141.9121  133.3899  155.3493 C.ar    1  UNL1        0.0715
     14 C         143.0142  133.5137  156.3592 C.ar    1  UNL1        0.0051
     15 C         143.5962  134.8601  156.6729 C.ar    1  UNL1        0.0147
     16 C         141.3301  132.0435  155.0356 C.3     1  UNL1        0.4186
     17 F         140.7480  130.6971  154.7219 F       1  UNL1       -0.1659
     18 F         140.7150  132.6004  153.7860 F       1  UNL1       -0.1659
     19 F         141.9451  131.4865  156.2851 F       1  UNL1       -0.1659
     20 C         142.7596  141.0925  160.1661 C.ar    1  UNL1        0.1255
     21 C         141.8674  140.4300  161.1736 C.ar    1  UNL1        0.0233
     22 C         141.3738  141.2023  162.3610 C.ar    1  UNL1        0.0383
     23 C         141.7725  142.6371  162.5410 C.ar    1  UNL1        0.1386
     24 C         142.6647  143.2996  161.5335 C.ar    1  UNL1        0.0383
     25 C         143.1583  142.5273  160.3461 C.ar    1  UNL1        0.0233
     26 O         141.2790  143.4094  163.7283 O.3     1  UNL1       -0.4754
     27 C         140.5801  142.6973  164.8484 C.3     1  UNL1        0.2068
     28 C         141.3787  142.0738  165.9546 C.3     1  UNL1        0.0646
     29 C         142.8309  142.4135  166.1147 C.3     1  UNL1        0.0759
     30 N         143.8452  141.8317  165.1752 N.3     1  UNL1       -0.2726
     31 C         143.9545  140.3892  164.7789 C.3     1  UNL1        0.0721
     32 C         145.1051  140.2562  163.8258 C.3     1  UNL1        0.0188
     33 C         145.7070  141.6166  163.6331 C.3     1  UNL1        0.0188
     34 C         144.9283  142.5903  164.4671 C.3     1  UNL1        0.0721
@<TRIPOS>BOND
     1     4     5    2
     2     5     6   am
     3     6    10    1
     4    10    11   ar
     5    11    12   ar
     6    12    13   ar
     7    13    16    1
     8    16    17    1
     9    16    18    1
    10    16    19    1
    11    13    14   ar
    12    14    15   ar
    13     5     7   am
    14     7     1    1
    15     1     2    2
    16     1     3    2
    17     1    20    1
    18    20    21   ar
    19    21    22   ar
    20    22    23   ar
    21    23    26    1
    22    26    27    1
    23    27    28    1
    24    28    29    1
    25    29    30    1
    26    30    31    1
    27    31    32    1
    28    32    33    1
    29    33    34    1
    30    23    24   ar
    31    24    25   ar
    32    15    10   ar
    33    25    20   ar
    34    34    30    1
    35     6     8    1
    36     7     9    1
@<TRIPOS>MOLECULE
*****
 34 36 0 0 0
SMALL
GASTEIGER

@<TRIPOS>ATOM
      1 S         143.5949  140.6644  161.7558 S.O2    1  UNL1        0.0768
      2 O         144.7795  141.5449  162.0230 O.2     1  UNL1       -0.1498
      3 O         142.4104  139.7838  161.4885 O.2     1  UNL1       -0.1498
      4 O         142.0675  141.9648  163.9864 O.2     1  UNL1       -0.2509
      5 C         142.9249  140.7657  164.2639 C.2     1  UNL1        0.3231
      6 N         143.0186  140.2168  165.6567 N.am    1  UNL1       -0.2671
      7 N         143.6887  140.1155  163.1485 N.am    1  UNL1       -0.1690
      8 H         143.5814  139.4298  165.8388 H       1  UNL1        0.1565
      9 H         144.2514  139.3285  163.3307 H       1  UNL1        0.1781
     10 C         142.2549  140.8671  166.7721 C.ar    1  UNL1        0.0516
     11 C         140.8614  140.4130  167.0912 C.ar    1  UNL1        0.0147
     12 C         140.0977  141.0632  168.2066 C.ar    1  UNL1        0.0051
     13 C         140.7276  142.1675  169.0028 C.ar    1  UNL1        0.0715
     14 C         142.1211  142.6215  168.6836 C.ar    1  UNL1        0.0051
     15 C         142.8848  141.9713  167.5683 C.ar    1  UNL1        0.0147
     16 C         139.9639  142.8177  170.1181 C.3     1  UNL1        0.4186
     17 F         139.2002  143.4679  171.2335 F       1  UNL1       -0.1659
     18 F         139.1520  141.5683  170.2907 F       1  UNL1       -0.1659
     19 F         140.7757  144.0671  169.9456 F       1  UNL1       -0.1659
     20 C         143.5012  141.2132  160.3630 C.ar    1  UNL1        0.1255
     21 C         144.4291  142.3069  159.9238 C.ar    1  UNL1        0.0233
     22 C         144.3353  142.8558  158.5309 C.ar    1  UNL1        0.0383
     23 C         143.3137  142.3110  157.5773 C.ar    1  UNL1        0.1386
     24 C         142.3859  141.2173  158.0165 C.ar    1  UNL1        0.0383
     25 C         142.4796  140.6684  159.4092 C.ar    1  UNL1        0.0233
     26 O         143.2200  142.8598  156.1845 O.3     1  UNL1       -0.4754
     27 C         142.1942  143.9043  155.8574 C.3     1  UNL1        0.2068
     28 C         142.1362  145.1740  156.6540 C.3     1  UNL1        0.0646
     29 C         140.9420  145.4662  157.5134 C.3     1  UNL1        0.0759
     30 N         140.6566  144.6155  158.7153 N.3     1  UNL1       -0.2726
     31 C         139.5857  143.5706  158.8217 C.3     1  UNL1        0.0721
     32 C         139.6593  142.9695  160.1940 C.3     1  UNL1        0.0188
     33 C         140.7757  143.6429  160.9358 C.3     1  UNL1        0.0188
     34 C         141.3921  144.6602  160.0219 C.3     1  UNL1        0.0721
@<TRIPOS>BOND
     1     4     5    2
     2     5     6   am
     3     6    10    1
     4    10    11   ar
     5    11    12   ar
     6    12    13   ar
     7    13    16    1
     8    16    17    1
     9    16    18    1
    10    16    19    1
    11    13    14   ar
    12    14    15   ar
    13     5     7   am
    14     7     1    1
    15     1     2    2
    16     1     3    2
    17     1    20    1
    18    20    21   ar
    19    21    22   ar
    20    22    23   ar
    21    23    26    1
    22    26    27    1
    23    27    28    1
    24    28    29    1
    25    29    30    1
    26    30    31    1
    27    31    32    1
    28    32    33    1
    29    33    34    1
    30    23    24   ar
    31    24    25   ar
    32    15    10   ar
    33    25    20   ar
    34    34    30    1
    35     6     8    1
    36     7     9    1
