@<TRIPOS>MOLECULE
*****
 37 40 0 0 0
SMALL
GASTEIGER

@<TRIPOS>ATOM
      1 C         142.7558  141.6493  161.2766 C.3     1  UNL1        0.1171
      2 N         142.0616  142.0397  162.5477 N.am    1  UNL1       -0.2557
      3 C         142.3468  141.5240  163.9270 C.2     1  UNL1        0.3150
      4 O         143.4281  140.5061  164.1386 O.2     1  UNL1       -0.2516
      5 N         141.5506  142.0260  165.0949 N.am    1  UNL1       -0.2256
      6 C         140.4693  143.0438  164.8835 C.2     1  UNL1        0.0380
      7 C         140.1841  143.5596  163.5041 C.2     1  UNL1        0.0447
      8 C         139.0650  144.5535  163.6030 C.2     1  UNL1        0.1723
      9 O         138.4589  145.3152  162.4618 O.2     1  UNL1       -0.2916
     10 C         138.6586  144.6521  165.0435 C.3     1  UNL1        0.0749
     11 C         139.5264  143.7190  165.8349 C.3     1  UNL1        0.0498
     12 C         140.9803  143.0576  162.3362 C.3     1  UNL1        0.1269
     13 C         141.8357  141.5102  166.4743 C.ar    1  UNL1        0.0592
     14 C         141.6214  140.0600  166.7920 C.ar    1  UNL1        0.0153
     15 C         141.9066  139.5443  168.1714 C.ar    1  UNL1        0.0012
     16 C         142.4061  140.4787  169.2331 C.ar    1  UNL1        0.0039
     17 C         142.6204  141.9290  168.9154 C.ar    1  UNL1        0.0727
     18 C         142.3353  142.4447  167.5361 C.ar    1  UNL1        0.0191
     19 C         143.1199  142.8634  169.9771 C.3     1  UNL1        0.4186
     20 F         143.6194  143.7979  171.0389 F       1  UNL1       -0.1659
     21 F         141.8047  143.5845  169.9613 F       1  UNL1       -0.1659
     22 F         144.4352  142.1424  169.9930 F       1  UNL1       -0.1659
     23 C         140.6952  143.5733  160.9568 C.ar    1  UNL1        0.0172
     24 C         141.4699  144.7388  160.4169 C.ar    1  UNL1       -0.0004
     25 C         141.1849  145.2546  159.0375 C.ar    1  UNL1        0.0101
     26 C         140.1251  144.6048  158.1980 C.ar    1  UNL1        0.0697
     27 C         139.3504  143.4393  158.7379 C.ar    1  UNL1        0.0284
     28 C         139.6354  142.9236  160.1173 C.ar    1  UNL1        0.1043
     29 S         138.8607  141.7581  160.6572 S.O2    1  UNL1        0.0110
     30 O         137.8585  142.8195  161.0021 O.2     1  UNL1       -0.1686
     31 O         139.9656  140.8319  160.2433 O.2     1  UNL1       -0.1686
     32 C         138.0860  140.5926  161.1970 C.3     1  UNL1        0.1875
     33 C         137.7499  140.5273  162.6574 C.3     1  UNL1        0.1629
     34 O         136.6215  141.3503  163.2048 O.3     1  UNL1       -0.3801
     35 H         136.8426  142.2919  163.1311 H       1  UNL1        0.2105
     36 C         139.8401  145.1206  156.8186 C.1     1  UNL1        0.1005
     37 N         139.5551  145.6365  155.4392 N.1     1  UNL1       -0.1908
@<TRIPOS>BOND
     1     1     2    1
     2     2     3   am
     3     3     4    2
     4     3     5   am
     5     5    13    1
     6    13    14   ar
     7    14    15   ar
     8    15    16   ar
     9    16    17   ar
    10    17    19    1
    11    19    20    1
    12    19    21    1
    13    19    22    1
    14    17    18   ar
    15     5     6    1
    16     6     7    2
    17     7     8    1
    18     8     9    2
    19     8    10    1
    20    10    11    1
    21     7    12    1
    22    12    23    1
    23    23    24   ar
    24    24    25   ar
    25    25    26   ar
    26    26    36    1
    27    36    37    3
    28    26    27   ar
    29    27    28   ar
    30    28    29    1
    31    29    30    2
    32    29    31    2
    33    29    32    1
    34    32    33    1
    35    33    34    1
    36    12     2    1
    37    28    23   ar
    38    18    13   ar
    39    11     6    1
    40    34    35    1
@<TRIPOS>MOLECULE
*****
 37 40 0 0 0
SMALL
GASTEIGER

@<TRIPOS>ATOM
      1 C         142.1490  140.8935  161.7661 C.3     1  UNL1        0.1171
      2 N         141.6007  141.5785  162.9827 N.am    1  UNL1       -0.2557
      3 C         142.0269  141.3695  164.4055 C.2     1  UNL1        0.3150
      4 O         143.1129  140.3856  164.7264 O.2     1  UNL1       -0.2516
      5 N         141.3673  142.1442  165.5076 N.am    1  UNL1       -0.2256
      6 C         140.2814  143.1280  165.1869 C.2     1  UNL1        0.0380
      7 C         139.8551  143.3371  163.7640 C.2     1  UNL1        0.0447
      8 C         138.7649  144.3673  163.7533 C.2     1  UNL1        0.1723
      9 O         138.0481  144.8799  162.5394 O.2     1  UNL1       -0.2916
     10 C         138.5174  144.7949  165.1695 C.3     1  UNL1        0.0749
     11 C         139.4547  144.0290  166.0556 C.3     1  UNL1        0.0498
     12 C         140.5147  142.5624  162.6619 C.3     1  UNL1        0.1269
     13 C         141.7936  141.9351  166.9305 C.ar    1  UNL1        0.0592
     14 C         143.1076  142.4791  167.4074 C.ar    1  UNL1        0.0153
     15 C         143.5338  142.2700  168.8303 C.ar    1  UNL1        0.0012
     16 C         142.6461  141.5169  169.7763 C.ar    1  UNL1        0.0039
     17 C         141.3321  140.9729  169.2993 C.ar    1  UNL1        0.0727
     18 C         140.9058  141.1820  167.8765 C.ar    1  UNL1        0.0191
     19 C         140.4444  140.2199  170.2452 C.3     1  UNL1        0.4186
     20 F         139.5567  139.4668  171.1912 F       1  UNL1       -0.1659
     21 F         141.3258  140.6201  171.3910 F       1  UNL1       -0.1659
     22 F         139.5629  139.8197  169.0995 F       1  UNL1       -0.1659
     23 C         140.0885  142.7714  161.2389 C.ar    1  UNL1        0.0172
     24 C         140.7210  143.8559  160.4182 C.ar    1  UNL1       -0.0004
     25 C         140.2949  144.0650  158.9953 C.ar    1  UNL1        0.0101
     26 C         139.2362  143.1895  158.3932 C.ar    1  UNL1        0.0697
     27 C         138.6036  142.1049  159.2139 C.ar    1  UNL1        0.0284
     28 C         139.0298  141.8959  160.6368 C.ar    1  UNL1        0.1043
     29 S         138.3972  140.8113  161.4576 S.O2    1  UNL1        0.0110
     30 O         139.4594  139.9639  160.8221 O.2     1  UNL1       -0.1686
     31 O         137.4049  141.7983  161.9970 O.2     1  UNL1       -0.1686
     32 C         137.7647  139.7267  162.2783 C.3     1  UNL1        0.1875
     33 C         138.1280  139.5728  163.7255 C.3     1  UNL1        0.1629
     34 O         137.7353  140.6306  164.7139 O.3     1  UNL1       -0.3801
     35 H         138.2103  141.4523  164.5138 H       1  UNL1        0.2105
     36 C         138.8100  143.3986  156.9703 C.1     1  UNL1        0.1005
     37 N         138.3837  143.6076  155.5474 N.1     1  UNL1       -0.1908
@<TRIPOS>BOND
     1     1     2    1
     2     2     3   am
     3     3     4    2
     4     3     5   am
     5     5    13    1
     6    13    14   ar
     7    14    15   ar
     8    15    16   ar
     9    16    17   ar
    10    17    19    1
    11    19    20    1
    12    19    21    1
    13    19    22    1
    14    17    18   ar
    15     5     6    1
    16     6     7    2
    17     7     8    1
    18     8     9    2
    19     8    10    1
    20    10    11    1
    21     7    12    1
    22    12    23    1
    23    23    24   ar
    24    24    25   ar
    25    25    26   ar
    26    26    36    1
    27    36    37    3
    28    26    27   ar
    29    27    28   ar
    30    28    29    1
    31    29    30    2
    32    29    31    2
    33    29    32    1
    34    32    33    1
    35    33    34    1
    36    12     2    1
    37    28    23   ar
    38    18    13   ar
    39    11     6    1
    40    34    35    1
@<TRIPOS>MOLECULE
*****
 37 40 0 0 0
SMALL
GASTEIGER

@<TRIPOS>ATOM
      1 C         139.0045  145.0366  162.7131 C.3     1  UNL1        0.1171
      2 N         139.9569  144.0018  163.2347 N.am    1  UNL1       -0.2557
      3 C         140.1579  143.5994  164.6655 C.2     1  UNL1        0.3150
      4 O         139.3567  144.2578  165.7495 O.2     1  UNL1       -0.2516
      5 N         141.1600  142.5387  165.0127 N.am    1  UNL1       -0.2256
      6 C         141.9611  141.8802  163.9289 C.2     1  UNL1        0.0380
      7 C         141.7601  142.2826  162.4979 C.2     1  UNL1        0.0447
      8 C         142.6881  141.4629  161.6512 C.2     1  UNL1        0.1723
      9 O         142.8187  141.5389  160.1588 O.2     1  UNL1       -0.2916
     10 C         143.4627  140.5540  162.5589 C.3     1  UNL1        0.0749
     11 C         143.0133  140.8119  163.9666 C.3     1  UNL1        0.0498
     12 C         140.7580  143.3433  162.1507 C.3     1  UNL1        0.1269
     13 C         141.3609  142.1363  166.4437 C.ar    1  UNL1        0.0592
     14 C         142.6936  142.3421  167.1006 C.ar    1  UNL1        0.0153
     15 C         142.8945  141.9398  168.5316 C.ar    1  UNL1        0.0012
     16 C         141.7628  141.3316  169.3058 C.ar    1  UNL1        0.0039
     17 C         140.4300  141.1258  168.6488 C.ar    1  UNL1        0.0727
     18 C         140.2291  141.5281  167.2179 C.ar    1  UNL1        0.0191
     19 C         139.2983  140.5176  169.4229 C.3     1  UNL1        0.4186
     20 F         138.1666  139.9095  170.1970 F       1  UNL1       -0.1659
     21 F         139.6889  141.3230  170.6266 F       1  UNL1       -0.1659
     22 F         138.9077  139.7123  168.2192 F       1  UNL1       -0.1659
     23 C         140.5570  143.7458  160.7197 C.ar    1  UNL1        0.0172
     24 C         141.3730  144.8587  160.1320 C.ar    1  UNL1       -0.0004
     25 C         141.1720  145.2611  158.7010 C.ar    1  UNL1        0.0101
     26 C         140.1550  144.5506  157.8579 C.ar    1  UNL1        0.0697
     27 C         139.3390  143.4377  158.4457 C.ar    1  UNL1        0.0284
     28 C         139.5400  143.0353  159.8767 C.ar    1  UNL1        0.1043
     29 S         138.7240  141.9223  160.4644 S.O2    1  UNL1        0.0110
     30 O         139.8192  141.0673  159.8992 O.2     1  UNL1       -0.1686
     31 O         137.7208  142.9205  160.9616 O.2     1  UNL1       -0.1686
     32 C         137.9079  140.8094  161.0522 C.3     1  UNL1        0.1875
     33 C         137.7492  140.7006  162.5398 C.3     1  UNL1        0.1629
     34 O         136.5695  141.3336  163.2165 O.3     1  UNL1       -0.3801
     35 H         136.6259  142.2980  163.1293 H       1  UNL1        0.2105
     36 C         139.9541  144.9531  156.4269 C.1     1  UNL1        0.1005
     37 N         139.7531  145.3557  154.9960 N.1     1  UNL1       -0.1908
@<TRIPOS>BOND
     1     1     2    1
     2     2     3   am
     3     3     4    2
     4     3     5   am
     5     5    13    1
     6    13    14   ar
     7    14    15   ar
     8    15    16   ar
     9    16    17   ar
    10    17    19    1
    11    19    20    1
    12    19    21    1
    13    19    22    1
    14    17    18   ar
    15     5     6    1
    16     6     7    2
    17     7     8    1
    18     8     9    2
    19     8    10    1
    20    10    11    1
    21     7    12    1
    22    12    23    1
    23    23    24   ar
    24    24    25   ar
    25    25    26   ar
    26    26    36    1
    27    36    37    3
    28    26    27   ar
    29    27    28   ar
    30    28    29    1
    31    29    30    2
    32    29    31    2
    33    29    32    1
    34    32    33    1
    35    33    34    1
    36    12     2    1
    37    28    23   ar
    38    18    13   ar
    39    11     6    1
    40    34    35    1
@<TRIPOS>MOLECULE
*****
 37 40 0 0 0
SMALL
GASTEIGER

@<TRIPOS>ATOM
      1 C         141.9213  139.6216  162.2075 C.3     1  UNL1        0.1171
      2 N         141.3334  140.5996  163.1812 N.am    1  UNL1       -0.2557
      3 C         141.2939  140.4729  164.6753 C.2     1  UNL1        0.3150
      4 O         141.8859  139.2665  165.3417 O.2     1  UNL1       -0.2516
      5 N         140.6624  141.5527  165.5031 N.am    1  UNL1       -0.2256
      6 C         140.0704  142.7591  164.8368 C.2     1  UNL1        0.0380
      7 C         140.1098  142.8858  163.3426 C.2     1  UNL1        0.0447
      8 C         139.4502  144.1803  162.9696 C.2     1  UNL1        0.1723
      9 O         139.2694  144.7086  161.5774 O.2     1  UNL1       -0.2916
     10 C         139.0030  144.8536  164.2331 C.3     1  UNL1        0.0749
     11 C         139.3863  143.9754  165.3871 C.3     1  UNL1        0.0498
     12 C         140.7413  141.8060  162.5148 C.3     1  UNL1        0.1269
     13 C         140.6229  141.4260  166.9972 C.ar    1  UNL1        0.0592
     14 C         139.6542  140.4813  167.6445 C.ar    1  UNL1        0.0153
     15 C         139.6148  140.3547  169.1386 C.ar    1  UNL1        0.0012
     16 C         140.5441  141.1727  169.9855 C.ar    1  UNL1        0.0039
     17 C         141.5128  142.1175  169.3381 C.ar    1  UNL1        0.0727
     18 C         141.5523  142.2442  167.8441 C.ar    1  UNL1        0.0191
     19 C         142.4421  142.9356  170.1850 C.3     1  UNL1        0.4186
     20 F         143.3714  143.7537  171.0318 F       1  UNL1       -0.1659
     21 F         143.4173  141.7963  170.2154 F       1  UNL1       -0.1659
     22 F         141.4669  144.0749  170.1545 F       1  UNL1       -0.1659
     23 C         140.7808  141.9326  161.0207 C.ar    1  UNL1        0.0172
     24 C         139.6406  141.4165  160.1939 C.ar    1  UNL1       -0.0004
     25 C         139.6801  141.5430  158.6998 C.ar    1  UNL1        0.0101
     26 C         140.8597  142.1857  158.0325 C.ar    1  UNL1        0.0697
     27 C         141.9999  142.7019  158.8592 C.ar    1  UNL1        0.0284
     28 C         141.9604  142.5754  160.3534 C.ar    1  UNL1        0.1043
     29 S         143.1006  143.0916  161.1801 S.O2    1  UNL1        0.0110
     30 O         142.3322  144.3776  161.1051 O.2     1  UNL1       -0.1686
     31 O         143.7348  141.7325  161.1541 O.2     1  UNL1       -0.1686
     32 C         144.2408  143.6077  162.0069 C.3     1  UNL1        0.1875
     33 C         144.8724  142.7287  163.0453 C.3     1  UNL1        0.1629
     34 O         146.0969  141.9305  162.7081 O.3     1  UNL1       -0.3801
     35 H         145.8733  141.2609  162.0427 H       1  UNL1        0.2105
     36 C         140.8991  142.3123  156.5383 C.1     1  UNL1        0.1005
     37 N         140.9386  142.4389  155.0442 N.1     1  UNL1       -0.1908
@<TRIPOS>BOND
     1     1     2    1
     2     2     3   am
     3     3     4    2
     4     3     5   am
     5     5    13    1
     6    13    14   ar
     7    14    15   ar
     8    15    16   ar
     9    16    17   ar
    10    17    19    1
    11    19    20    1
    12    19    21    1
    13    19    22    1
    14    17    18   ar
    15     5     6    1
    16     6     7    2
    17     7     8    1
    18     8     9    2
    19     8    10    1
    20    10    11    1
    21     7    12    1
    22    12    23    1
    23    23    24   ar
    24    24    25   ar
    25    25    26   ar
    26    26    36    1
    27    36    37    3
    28    26    27   ar
    29    27    28   ar
    30    28    29    1
    31    29    30    2
    32    29    31    2
    33    29    32    1
    34    32    33    1
    35    33    34    1
    36    12     2    1
    37    28    23   ar
    38    18    13   ar
    39    11     6    1
    40    34    35    1
@<TRIPOS>MOLECULE
*****
 37 40 0 0 0
SMALL
GASTEIGER

@<TRIPOS>ATOM
      1 C         141.4579  143.0301  161.7441 C.3     1  UNL1        0.1171
      2 N         141.1563  142.2578  162.9942 N.am    1  UNL1       -0.2557
      3 C         141.5638  142.6108  164.3939 C.2     1  UNL1        0.3150
      4 O         142.3606  143.8553  164.6517 O.2     1  UNL1       -0.2516
      5 N         141.1745  141.7195  165.5358 N.am    1  UNL1       -0.2256
      6 C         140.3777  140.4751  165.2780 C.2     1  UNL1        0.0380
      7 C         139.9702  140.1220  163.8783 C.2     1  UNL1        0.0447
      8 C         139.1930  138.8401  163.9311 C.2     1  UNL1        0.1723
      9 O         138.5938  138.1233  162.7576 O.2     1  UNL1       -0.2916
     10 C         139.1202  138.4010  165.3636 C.3     1  UNL1        0.0749
     11 C         139.8524  139.4115  166.1960 C.3     1  UNL1        0.0498
     12 C         140.3594  141.0133  162.7363 C.3     1  UNL1        0.1269
     13 C         141.5821  142.0727  166.9355 C.ar    1  UNL1        0.0592
     14 C         143.0240  141.9895  167.3404 C.ar    1  UNL1        0.0153
     15 C         143.4314  142.3426  168.7402 C.ar    1  UNL1        0.0012
     16 C         142.3971  142.7789  169.7350 C.ar    1  UNL1        0.0039
     17 C         140.9551  142.8621  169.3300 C.ar    1  UNL1        0.0727
     18 C         140.5476  142.5090  167.9304 C.ar    1  UNL1        0.0191
     19 C         139.9207  143.2984  170.3249 C.3     1  UNL1        0.4186
     20 F         138.8864  143.7347  171.3197 F       1  UNL1       -0.1659
     21 F         140.4749  144.6918  170.2899 F       1  UNL1       -0.1659
     22 F         139.3666  141.9049  170.3598 F       1  UNL1       -0.1659
     23 C         139.9519  140.6602  161.3365 C.ar    1  UNL1        0.0172
     24 C         138.6583  141.1761  160.7794 C.ar    1  UNL1       -0.0004
     25 C         138.2507  140.8231  159.3796 C.ar    1  UNL1        0.0101
     26 C         139.1368  139.9543  158.5371 C.ar    1  UNL1        0.0697
     27 C         140.4304  139.4384  159.0943 C.ar    1  UNL1        0.0284
     28 C         140.8380  139.7914  160.4940 C.ar    1  UNL1        0.1043
     29 S         142.1316  139.2755  161.0512 S.O2    1  UNL1        0.0110
     30 O         141.2955  138.0773  161.3907 O.2     1  UNL1       -0.1686
     31 O         142.8151  140.5461  160.6406 O.2     1  UNL1       -0.1686
     32 C         143.4253  138.7597  161.6083 C.3     1  UNL1        0.1875
     33 C         144.1050  139.4919  162.7271 C.3     1  UNL1        0.1629
     34 O         145.1706  140.5030  162.4234 O.3     1  UNL1       -0.3801
     35 H         145.9376  140.0567  162.0317 H       1  UNL1        0.2105
     36 C         138.7293  139.6013  157.1374 C.1     1  UNL1        0.1005
     37 N         138.3216  139.2482  155.7376 N.1     1  UNL1       -0.1908
@<TRIPOS>BOND
     1     1     2    1
     2     2     3   am
     3     3     4    2
     4     3     5   am
     5     5    13    1
     6    13    14   ar
     7    14    15   ar
     8    15    16   ar
     9    16    17   ar
    10    17    19    1
    11    19    20    1
    12    19    21    1
    13    19    22    1
    14    17    18   ar
    15     5     6    1
    16     6     7    2
    17     7     8    1
    18     8     9    2
    19     8    10    1
    20    10    11    1
    21     7    12    1
    22    12    23    1
    23    23    24   ar
    24    24    25   ar
    25    25    26   ar
    26    26    36    1
    27    36    37    3
    28    26    27   ar
    29    27    28   ar
    30    28    29    1
    31    29    30    2
    32    29    31    2
    33    29    32    1
    34    32    33    1
    35    33    34    1
    36    12     2    1
    37    28    23   ar
    38    18    13   ar
    39    11     6    1
    40    34    35    1
@<TRIPOS>MOLECULE
*****
 37 40 0 0 0
SMALL
GASTEIGER

@<TRIPOS>ATOM
      1 C         142.1285  142.5836  161.9729 C.3     1  UNL1        0.1171
      2 N         141.5891  141.9957  163.2432 N.am    1  UNL1       -0.2557
      3 C         141.9493  142.3902  164.6447 C.2     1  UNL1        0.3150
      4 O         142.9495  143.4825  164.8829 O.2     1  UNL1       -0.2516
      5 N         141.3094  141.6925  165.8082 N.am    1  UNL1       -0.2256
      6 C         140.3092  140.6003  165.5701 C.2     1  UNL1        0.0380
      7 C         139.9490  140.2057  164.1684 C.2     1  UNL1        0.0447
      8 C         138.9371  139.1010  164.2433 C.2     1  UNL1        0.1723
      9 O         138.3019  138.4064  163.0754 O.2     1  UNL1       -0.2916
     10 C         138.6720  138.8127  165.6913 C.3     1  UNL1        0.0749
     11 C         139.5200  139.7393  166.5113 C.3     1  UNL1        0.0498
     12 C         140.5889  140.9034  163.0049 C.3     1  UNL1        0.1269
     13 C         141.6696  142.0870  167.2098 C.ar    1  UNL1        0.0592
     14 C         143.0867  141.9583  167.6845 C.ar    1  UNL1        0.0153
     15 C         143.4468  142.3529  169.0862 C.ar    1  UNL1        0.0012
     16 C         142.3900  142.8762  170.0132 C.ar    1  UNL1        0.0039
     17 C         140.9728  143.0049  169.5384 C.ar    1  UNL1        0.0727
     18 C         140.6127  142.6103  168.1368 C.ar    1  UNL1        0.0191
     19 C         139.9160  143.5281  170.4654 C.3     1  UNL1        0.4186
     20 F         138.8592  144.0514  171.3923 F       1  UNL1       -0.1659
     21 F         139.4035  142.1331  170.6685 F       1  UNL1       -0.1659
     22 F         140.4285  144.9231  170.2622 F       1  UNL1       -0.1659
     23 C         140.2287  140.5089  161.6032 C.ar    1  UNL1        0.0172
     24 C         140.9670  139.3932  160.9250 C.ar    1  UNL1       -0.0004
     25 C         140.6069  138.9986  159.5233 C.ar    1  UNL1        0.0101
     26 C         139.5085  139.7199  158.8000 C.ar    1  UNL1        0.0697
     27 C         138.7703  140.8356  159.4782 C.ar    1  UNL1        0.0284
     28 C         139.1304  141.2302  160.8799 C.ar    1  UNL1        0.1043
     29 S         138.3921  142.3459  161.5581 S.O2    1  UNL1        0.0110
     30 O         139.4439  143.1929  160.9051 O.2     1  UNL1       -0.1686
     31 O         137.4231  141.3555  162.1326 O.2     1  UNL1       -0.1686
     32 C         137.6538  143.4617  162.2363 C.3     1  UNL1        0.1875
     33 C         138.0275  143.8698  163.6305 C.3     1  UNL1        0.1629
     34 O         139.0994  144.8961  163.8497 O.3     1  UNL1       -0.3801
     35 H         139.9515  144.5427  163.5500 H       1  UNL1        0.2105
     36 C         139.1484  139.3253  157.3983 C.1     1  UNL1        0.1005
     37 N         138.7884  138.9307  155.9966 N.1     1  UNL1       -0.1908
@<TRIPOS>BOND
     1     1     2    1
     2     2     3   am
     3     3     4    2
     4     3     5   am
     5     5    13    1
     6    13    14   ar
     7    14    15   ar
     8    15    16   ar
     9    16    17   ar
    10    17    19    1
    11    19    20    1
    12    19    21    1
    13    19    22    1
    14    17    18   ar
    15     5     6    1
    16     6     7    2
    17     7     8    1
    18     8     9    2
    19     8    10    1
    20    10    11    1
    21     7    12    1
    22    12    23    1
    23    23    24   ar
    24    24    25   ar
    25    25    26   ar
    26    26    36    1
    27    36    37    3
    28    26    27   ar
    29    27    28   ar
    30    28    29    1
    31    29    30    2
    32    29    31    2
    33    29    32    1
    34    32    33    1
    35    33    34    1
    36    12     2    1
    37    28    23   ar
    38    18    13   ar
    39    11     6    1
    40    34    35    1
@<TRIPOS>MOLECULE
*****
 37 40 0 0 0
SMALL
GASTEIGER

@<TRIPOS>ATOM
      1 C         141.3703  139.0657  162.6455 C.3     1  UNL1        0.1171
      2 N         141.0728  140.3085  163.4310 N.am    1  UNL1       -0.2557
      3 C         141.5069  140.6155  164.8336 C.2     1  UNL1        0.3150
      4 O         142.3299  139.6217  165.5985 O.2     1  UNL1       -0.2516
      5 N         141.1181  141.9163  165.4713 N.am    1  UNL1       -0.2256
      6 C         140.2951  142.9101  164.7064 C.2     1  UNL1        0.0380
      7 C         139.8610  142.6032  163.3038 C.2     1  UNL1        0.0447
      8 C         139.0614  143.7683  162.8005 C.2     1  UNL1        0.1723
      9 O         138.4324  143.8857  161.4439 O.2     1  UNL1       -0.2916
     10 C         139.0014  144.7953  163.8921 C.3     1  UNL1        0.0749
     11 C         139.7639  144.2650  165.0701 C.3     1  UNL1        0.0498
     12 C         140.2498  141.3024  162.6661 C.3     1  UNL1        0.1269
     13 C         141.5522  142.2233  166.8739 C.ar    1  UNL1        0.0592
     14 C         143.0058  142.1637  167.2391 C.ar    1  UNL1        0.0153
     15 C         143.4399  142.4706  168.6418 C.ar    1  UNL1        0.0012
     16 C         142.4204  142.8372  169.6792 C.ar    1  UNL1        0.0039
     17 C         140.9667  142.8968  169.3139 C.ar    1  UNL1        0.0727
     18 C         140.5326  142.5898  167.9114 C.ar    1  UNL1        0.0191
     19 C         139.9472  143.2633  170.3513 C.3     1  UNL1        0.4186
     20 F         138.9277  143.6299  171.3887 F       1  UNL1       -0.1659
     21 F         139.4744  141.8403  170.3895 F       1  UNL1       -0.1659
     22 F         140.4200  144.6863  170.3132 F       1  UNL1       -0.1659
     23 C         139.8157  140.9953  161.2634 C.ar    1  UNL1        0.0172
     24 C         138.5425  140.2403  161.0207 C.ar    1  UNL1       -0.0004
     25 C         138.1084  139.9332  159.6182 C.ar    1  UNL1        0.0101
     26 C         138.9474  140.3812  158.4584 C.ar    1  UNL1        0.0697
     27 C         140.2206  141.1362  158.7010 C.ar    1  UNL1        0.0284
     28 C         140.6548  141.4433  160.1036 C.ar    1  UNL1        0.1043
     29 S         141.9280  142.1983  160.3463 S.O2    1  UNL1        0.0110
     30 O         142.5039  140.8200  160.4826 O.2     1  UNL1       -0.1686
     31 O         141.1913  143.4943  160.1792 O.2     1  UNL1       -0.1686
     32 C         143.2012  142.9534  160.5890 C.3     1  UNL1        0.1875
     33 C         143.4104  143.6728  161.8885 C.3     1  UNL1        0.1629
     34 O         142.7305  144.9868  162.1361 O.3     1  UNL1       -0.3801
     35 H         143.0807  145.6526  161.5237 H       1  UNL1        0.2105
     36 C         138.5133  140.0741  157.0558 C.1     1  UNL1        0.1005
     37 N         138.0792  139.7671  155.6531 N.1     1  UNL1       -0.1908
@<TRIPOS>BOND
     1     1     2    1
     2     2     3   am
     3     3     4    2
     4     3     5   am
     5     5    13    1
     6    13    14   ar
     7    14    15   ar
     8    15    16   ar
     9    16    17   ar
    10    17    19    1
    11    19    20    1
    12    19    21    1
    13    19    22    1
    14    17    18   ar
    15     5     6    1
    16     6     7    2
    17     7     8    1
    18     8     9    2
    19     8    10    1
    20    10    11    1
    21     7    12    1
    22    12    23    1
    23    23    24   ar
    24    24    25   ar
    25    25    26   ar
    26    26    36    1
    27    36    37    3
    28    26    27   ar
    29    27    28   ar
    30    28    29    1
    31    29    30    2
    32    29    31    2
    33    29    32    1
    34    32    33    1
    35    33    34    1
    36    12     2    1
    37    28    23   ar
    38    18    13   ar
    39    11     6    1
    40    34    35    1
@<TRIPOS>MOLECULE
*****
 37 40 0 0 0
SMALL
GASTEIGER

@<TRIPOS>ATOM
      1 C         139.2483  140.4391  162.0928 C.3     1  UNL1        0.1171
      2 N         140.2374  140.9785  163.0832 N.am    1  UNL1       -0.2557
      3 C         140.2809  140.7029  164.5570 C.2     1  UNL1        0.3150
      4 O         139.2585  139.8004  165.1818 O.2     1  UNL1       -0.2516
      5 N         141.3467  141.3298  165.4060 N.am    1  UNL1       -0.2256
      6 C         142.3691  142.2322  164.7813 C.2     1  UNL1        0.0380
      7 C         142.3256  142.5078  163.3075 C.2     1  UNL1        0.0447
      8 C         143.4588  143.4327  162.9752 C.2     1  UNL1        0.1723
      9 O         143.7900  143.9677  161.6135 O.2     1  UNL1       -0.2916
     10 C         144.2026  143.7288  164.2437 C.3     1  UNL1        0.0749
     11 C         143.5291  142.9868  165.3599 C.3     1  UNL1        0.0498
     12 C         141.2598  141.8809  162.4584 C.3     1  UNL1        0.1269
     13 C         141.3902  141.0542  166.8799 C.ar    1  UNL1        0.0592
     14 C         142.1830  139.8931  167.4027 C.ar    1  UNL1        0.0153
     15 C         142.2264  139.6176  168.8766 C.ar    1  UNL1        0.0012
     16 C         141.4771  140.5031  169.8276 C.ar    1  UNL1        0.0039
     17 C         140.6843  141.6642  169.3047 C.ar    1  UNL1        0.0727
     18 C         140.6408  141.9398  167.8309 C.ar    1  UNL1        0.0191
     19 C         139.9349  142.5497  170.2557 C.3     1  UNL1        0.4186
     20 F         139.1856  143.4352  171.2066 F       1  UNL1       -0.1659
     21 F         141.0584  143.5428  170.2162 F       1  UNL1       -0.1659
     22 F         138.8115  141.5566  170.2952 F       1  UNL1       -0.1659
     23 C         141.2162  142.1565  160.9845 C.ar    1  UNL1        0.0172
     24 C         141.9703  141.2744  160.0341 C.ar    1  UNL1       -0.0004
     25 C         141.9268  141.5499  158.5602 C.ar    1  UNL1        0.0101
     26 C         141.1292  142.7074  158.0369 C.ar    1  UNL1        0.0697
     27 C         140.3751  143.5894  158.9873 C.ar    1  UNL1        0.0284
     28 C         140.4186  143.3140  160.4612 C.ar    1  UNL1        0.1043
     29 S         139.6644  144.1960  161.4116 S.O2    1  UNL1        0.0110
     30 O         138.5394  143.2521  161.1062 O.2     1  UNL1       -0.1686
     31 O         140.8906  145.0386  161.6025 O.2     1  UNL1       -0.1686
     32 C         138.9103  145.0780  162.3620 C.3     1  UNL1        0.1875
     33 C         139.0693  144.8944  163.8422 C.3     1  UNL1        0.1629
     34 O         140.3894  145.1781  164.4956 O.3     1  UNL1       -0.3801
     35 H         141.0494  144.5406  164.1811 H       1  UNL1        0.2105
     36 C         141.0857  142.9828  156.5630 C.1     1  UNL1        0.1005
     37 N         141.0423  143.2582  155.0891 N.1     1  UNL1       -0.1908
@<TRIPOS>BOND
     1     1     2    1
     2     2     3   am
     3     3     4    2
     4     3     5   am
     5     5    13    1
     6    13    14   ar
     7    14    15   ar
     8    15    16   ar
     9    16    17   ar
    10    17    19    1
    11    19    20    1
    12    19    21    1
    13    19    22    1
    14    17    18   ar
    15     5     6    1
    16     6     7    2
    17     7     8    1
    18     8     9    2
    19     8    10    1
    20    10    11    1
    21     7    12    1
    22    12    23    1
    23    23    24   ar
    24    24    25   ar
    25    25    26   ar
    26    26    36    1
    27    36    37    3
    28    26    27   ar
    29    27    28   ar
    30    28    29    1
    31    29    30    2
    32    29    31    2
    33    29    32    1
    34    32    33    1
    35    33    34    1
    36    12     2    1
    37    28    23   ar
    38    18    13   ar
    39    11     6    1
    40    34    35    1
@<TRIPOS>MOLECULE
*****
 37 40 0 0 0
SMALL
GASTEIGER

@<TRIPOS>ATOM
      1 C         137.7957  142.4943  164.5256 C.3     1  UNL1        0.1171
      2 N         138.9317  142.3269  163.5604 N.am    1  UNL1       -0.2557
      3 C         138.8945  142.5419  162.0765 C.2     1  UNL1        0.3150
      4 O         137.6198  142.9712  161.4124 O.2     1  UNL1       -0.2516
      5 N         140.1320  142.3276  161.2563 N.am    1  UNL1       -0.2256
      6 C         141.4067  141.8983  161.9203 C.2     1  UNL1        0.0380
      7 C         141.4439  141.6834  163.4043 C.2     1  UNL1        0.0447
      8 C         142.8349  141.2635  163.7772 C.2     1  UNL1        0.1723
      9 O         143.3185  140.9443  165.1607 O.2     1  UNL1       -0.2916
     10 C         143.6573  141.2191  162.5236 C.3     1  UNL1        0.0749
     11 C         142.7747  141.6114  161.3759 C.3     1  UNL1        0.0498
     12 C         140.2064  141.8976  164.2244 C.3     1  UNL1        0.1269
     13 C         140.0948  142.5426  159.7723 C.ar    1  UNL1        0.0592
     14 C         140.0431  141.3648  158.8449 C.ar    1  UNL1        0.0153
     15 C         140.0059  141.5798  157.3608 C.ar    1  UNL1        0.0012
     16 C         140.0204  142.9726  156.8042 C.ar    1  UNL1        0.0039
     17 C         140.0721  144.1505  157.7316 C.ar    1  UNL1        0.0727
     18 C         140.1094  143.9355  159.2156 C.ar    1  UNL1        0.0191
     19 C         140.0867  145.5432  157.1750 C.3     1  UNL1        0.4186
     20 F         140.1012  146.9360  156.6183 F       1  UNL1       -0.1659
     21 F         139.0996  145.1330  156.1227 F       1  UNL1       -0.1659
     22 F         141.0738  145.9535  158.2272 F       1  UNL1       -0.1659
     23 C         140.2436  141.6827  165.7085 C.ar    1  UNL1        0.0172
     24 C         140.5766  142.8237  166.6235 C.ar    1  UNL1       -0.0004
     25 C         140.6138  142.6089  168.1075 C.ar    1  UNL1        0.0101
     26 C         140.3178  141.2530  168.6766 C.ar    1  UNL1        0.0697
     27 C         139.9848  140.1119  167.7617 C.ar    1  UNL1        0.0284
     28 C         139.9476  140.3268  166.2776 C.ar    1  UNL1        0.1043
     29 S         139.6146  139.1857  165.3627 S.O2    1  UNL1        0.0110
     30 O         138.2099  139.6691  165.5711 O.2     1  UNL1       -0.1686
     31 O         141.0707  138.8390  165.2651 O.2     1  UNL1       -0.1686
     32 C         139.2815  138.0447  164.4478 C.3     1  UNL1        0.1875
     33 C         140.0524  137.8541  163.1752 C.3     1  UNL1        0.1629
     34 O         141.1033  136.7874  163.0876 O.3     1  UNL1       -0.3801
     35 H         141.8333  137.0025  163.6890 H       1  UNL1        0.2105
     36 C         140.3550  141.0381  170.1607 C.1     1  UNL1        0.1005
     37 N         140.3920  140.8233  171.6448 N.1     1  UNL1       -0.1908
@<TRIPOS>BOND
     1     1     2    1
     2     2     3   am
     3     3     4    2
     4     3     5   am
     5     5    13    1
     6    13    14   ar
     7    14    15   ar
     8    15    16   ar
     9    16    17   ar
    10    17    19    1
    11    19    20    1
    12    19    21    1
    13    19    22    1
    14    17    18   ar
    15     5     6    1
    16     6     7    2
    17     7     8    1
    18     8     9    2
    19     8    10    1
    20    10    11    1
    21     7    12    1
    22    12    23    1
    23    23    24   ar
    24    24    25   ar
    25    25    26   ar
    26    26    36    1
    27    36    37    3
    28    26    27   ar
    29    27    28   ar
    30    28    29    1
    31    29    30    2
    32    29    31    2
    33    29    32    1
    34    32    33    1
    35    33    34    1
    36    12     2    1
    37    28    23   ar
    38    18    13   ar
    39    11     6    1
    40    34    35    1
