@<TRIPOS>MOLECULE
*****
 25 25 0 0 0
SMALL
GASTEIGER

@<TRIPOS>ATOM
      1 C         138.5613  139.0890  165.7686 C.ar    1  UNL1       -0.0178
      2 C         138.7862  137.7149  165.2106 C.ar    1  UNL1       -0.0040
      3 C         139.0388  137.5334  163.7432 C.ar    1  UNL1        0.0028
      4 C         139.0666  138.7259  162.8338 C.ar    1  UNL1        0.0369
      5 C         138.8417  140.0999  163.3917 C.ar    1  UNL1        0.1382
      6 C         138.5890  140.2815  164.8591 C.ar    1  UNL1        0.0327
      7 C         138.3086  139.2705  167.2359 C.3     1  UNL1        0.0435
      8 C         139.3783  139.8468  168.1155 C.3     1  UNL1        0.0737
      9 N         139.1209  140.0407  169.5805 N.3     1  UNL1       -0.2895
     10 H         138.6419  140.9358  169.6793 H       1  UNL1        0.1237
     11 C         140.2671  140.0538  170.5480 C.3     1  UNL1        0.1552
     12 C         142.9329  142.9924  170.4594 C.3     1  UNL1        0.1149
     13 N         142.2326  141.7041  170.1437 N.am    1  UNL1       -0.2749
     14 C         142.7974  140.7776  169.1079 C.3     1  UNL1        0.1149
     15 C         140.9675  141.3421  170.8637 C.2     1  UNL1        0.2419
     16 O         140.4027  142.2686  171.8995 O.2     1  UNL1       -0.2734
     17 O         138.8694  141.2925  162.4823 O.3     1  UNL1       -0.4755
     18 C         137.6723  142.1914  162.3874 C.3     1  UNL1        0.2054
     19 C         137.6182  143.4559  163.1926 C.3     1  UNL1        0.0476
     20 C         138.6854  144.4968  163.0269 C.3     1  UNL1        0.0126
     21 C         139.5399  144.8875  164.1961 C.3     1  UNL1        0.1034
     22 C         139.6379  143.9832  165.3889 C.3     1  UNL1        0.3978
     23 F         139.7359  143.0788  166.5816 F       1  UNL1       -0.1700
     24 F         138.7370  144.9020  166.1596 F       1  UNL1       -0.1700
     25 F         140.5388  143.0643  164.6182 F       1  UNL1       -0.1700
@<TRIPOS>BOND
     1    12    13    1
     2    13    14    1
     3    13    15   am
     4    15    16    2
     5    15    11    1
     6    11     9    1
     7     9     8    1
     8     8     7    1
     9     7     1    1
    10     1     2   ar
    11     2     3   ar
    12     3     4   ar
    13     4     5   ar
    14     5    17    1
    15    17    18    1
    16    18    19    1
    17    19    20    1
    18    20    21    1
    19    21    22    1
    20    22    23    1
    21    22    24    1
    22    22    25    1
    23     5     6   ar
    24     6     1   ar
    25     9    10    1
@<TRIPOS>MOLECULE
*****
 25 25 0 0 0
SMALL
GASTEIGER

@<TRIPOS>ATOM
      1 C         139.1796  144.8841  162.8991 C.ar    1  UNL1       -0.0178
      2 C         139.1492  145.0016  164.3942 C.ar    1  UNL1       -0.0040
      3 C         138.4432  143.9626  165.2140 C.ar    1  UNL1        0.0028
      4 C         137.7677  142.8061  164.5387 C.ar    1  UNL1        0.0369
      5 C         137.7981  142.6885  163.0437 C.ar    1  UNL1        0.1382
      6 C         138.5041  143.7275  162.2239 C.ar    1  UNL1        0.0327
      7 C         139.8856  145.9231  162.0793 C.3     1  UNL1        0.0435
      8 C         140.3326  145.6013  160.6842 C.3     1  UNL1        0.0737
      9 N         141.7359  145.1333  160.4354 N.3     1  UNL1       -0.2895
     10 H         141.8328  145.0165  159.4267 H       1  UNL1        0.1237
     11 C         142.2265  143.8645  161.0674 C.3     1  UNL1        0.1552
     12 C         143.1897  142.9285  164.8018 C.3     1  UNL1        0.1149
     13 N         142.5276  142.8889  163.4564 N.am    1  UNL1       -0.2749
     14 C         141.5046  141.8342  163.1547 C.3     1  UNL1        0.1149
     15 C         142.8886  143.9040  162.4128 C.2     1  UNL1        0.2419
     16 O         143.9116  144.9588  162.7145 O.2     1  UNL1       -0.2734
     17 O         137.1226  141.5319  162.3684 O.3     1  UNL1       -0.4755
     18 C         137.9436  140.4216  161.7827 C.3     1  UNL1        0.2054
     19 C         138.2192  139.1869  162.5887 C.3     1  UNL1        0.0476
     20 C         138.7702  139.3062  163.9787 C.3     1  UNL1        0.0126
     21 C         138.6571  138.1534  164.9317 C.3     1  UNL1        0.1034
     22 C         138.0093  138.3479  166.2706 C.3     1  UNL1        0.3978
     23 F         137.3615  138.5424  167.6095 F       1  UNL1       -0.1700
     24 F         137.9654  136.8613  166.4654 F       1  UNL1       -0.1700
     25 F         138.0532  139.8345  166.0759 F       1  UNL1       -0.1700
@<TRIPOS>BOND
     1    12    13    1
     2    13    14    1
     3    13    15   am
     4    15    16    2
     5    15    11    1
     6    11     9    1
     7     9     8    1
     8     8     7    1
     9     7     1    1
    10     1     2   ar
    11     2     3   ar
    12     3     4   ar
    13     4     5   ar
    14     5    17    1
    15    17    18    1
    16    18    19    1
    17    19    20    1
    18    20    21    1
    19    21    22    1
    20    22    23    1
    21    22    24    1
    22    22    25    1
    23     5     6   ar
    24     6     1   ar
    25     9    10    1
@<TRIPOS>MOLECULE
*****
 25 25 0 0 0
SMALL
GASTEIGER

@<TRIPOS>ATOM
      1 C         138.1969  139.9171  162.7958 C.ar    1  UNL1       -0.0178
      2 C         138.7046  138.5590  162.4115 C.ar    1  UNL1       -0.0040
      3 C         139.1062  137.5800  163.4747 C.ar    1  UNL1        0.0028
      4 C         139.0001  137.9592  164.9221 C.ar    1  UNL1        0.0369
      5 C         138.4923  139.3173  165.3063 C.ar    1  UNL1        0.1382
      6 C         138.0907  140.2963  164.2431 C.ar    1  UNL1        0.0327
      7 C         137.7953  140.8961  161.7326 C.3     1  UNL1        0.0435
      8 C         138.3277  142.2981  161.7643 C.3     1  UNL1        0.0737
      9 N         137.4271  143.4337  162.1508 N.3     1  UNL1       -0.2895
     10 H         137.2432  143.9662  161.3004 H       1  UNL1        0.1237
     11 C         137.8678  144.4195  163.1920 C.3     1  UNL1        0.1552
     12 C         141.7352  145.2315  163.5575 C.3     1  UNL1        0.1149
     13 N         140.3234  145.2561  163.0513 N.am    1  UNL1       -0.2749
     14 C         139.9555  146.1420  161.8980 C.3     1  UNL1        0.1149
     15 C         139.2796  144.3949  163.6983 C.2     1  UNL1        0.2419
     16 O         139.6475  143.5090  164.8515 O.2     1  UNL1       -0.2734
     17 O         138.3861  139.6965  166.7537 O.3     1  UNL1       -0.4755
     18 C         139.5531  140.3310  167.4504 C.3     1  UNL1        0.2054
     19 C         139.8598  139.9757  168.8751 C.3     1  UNL1        0.0476
     20 C         139.5579  140.9519  169.9732 C.3     1  UNL1        0.0126
     21 C         140.6181  141.9031  170.4435 C.3     1  UNL1        0.1034
     22 C         140.4482  143.3787  170.2341 C.3     1  UNL1        0.3978
     23 F         140.2783  144.8542  170.0247 F       1  UNL1       -0.1700
     24 F         141.7172  143.4114  169.4350 F       1  UNL1       -0.1700
     25 F         139.1793  143.3460  171.0332 F       1  UNL1       -0.1700
@<TRIPOS>BOND
     1    12    13    1
     2    13    14    1
     3    13    15   am
     4    15    16    2
     5    15    11    1
     6    11     9    1
     7     9     8    1
     8     8     7    1
     9     7     1    1
    10     1     2   ar
    11     2     3   ar
    12     3     4   ar
    13     4     5   ar
    14     5    17    1
    15    17    18    1
    16    18    19    1
    17    19    20    1
    18    20    21    1
    19    21    22    1
    20    22    23    1
    21    22    24    1
    22    22    25    1
    23     5     6   ar
    24     6     1   ar
    25     9    10    1
@<TRIPOS>MOLECULE
*****
 25 25 0 0 0
SMALL
GASTEIGER

@<TRIPOS>ATOM
      1 C         143.3418  138.6266  165.0895 C.ar    1  UNL1       -0.0178
      2 C         144.3943  139.4140  164.3668 C.ar    1  UNL1       -0.0040
      3 C         144.3632  139.5106  162.8702 C.ar    1  UNL1        0.0028
      4 C         143.2797  138.8199  162.0964 C.ar    1  UNL1        0.0369
      5 C         142.2272  138.0325  162.8192 C.ar    1  UNL1        0.1382
      6 C         142.2583  137.9359  164.3157 C.ar    1  UNL1        0.0327
      7 C         143.3729  138.5300  166.5861 C.3     1  UNL1        0.0435
      8 C         142.5810  139.4959  167.4166 C.3     1  UNL1        0.0737
      9 N         141.2896  140.0516  166.8936 N.3     1  UNL1       -0.2895
     10 H         141.0698  139.5344  166.0424 H       1  UNL1        0.1237
     11 C         141.1827  141.5089  166.5548 C.3     1  UNL1        0.1552
     12 C         143.0794  142.8462  163.3354 C.3     1  UNL1        0.1149
     13 N         142.0392  142.1993  164.2011 N.am    1  UNL1       -0.2749
     14 C         140.8150  141.5958  163.5786 C.3     1  UNL1        0.1149
     15 C         142.2230  142.1559  165.6891 C.2     1  UNL1        0.2419
     16 O         143.4471  142.7594  166.3115 O.2     1  UNL1       -0.2734
     17 O         141.1436  137.3418  162.0454 O.3     1  UNL1       -0.4755
     18 C         139.8230  138.0210  161.8345 C.3     1  UNL1        0.2054
     19 C         138.7091  137.8170  162.8182 C.3     1  UNL1        0.0476
     20 C         138.7200  138.5507  164.1264 C.3     1  UNL1        0.0126
     21 C         138.7989  137.7861  165.4144 C.3     1  UNL1        0.1034
     22 C         137.8665  138.1177  166.5418 C.3     1  UNL1        0.3978
     23 F         136.9343  138.4493  167.6691 F       1  UNL1       -0.1700
     24 F         137.5931  136.6570  166.7454 F       1  UNL1       -0.1700
     25 F         138.1400  139.5784  166.3383 F       1  UNL1       -0.1700
@<TRIPOS>BOND
     1    12    13    1
     2    13    14    1
     3    13    15   am
     4    15    16    2
     5    15    11    1
     6    11     9    1
     7     9     8    1
     8     8     7    1
     9     7     1    1
    10     1     2   ar
    11     2     3   ar
    12     3     4   ar
    13     4     5   ar
    14     5    17    1
    15    17    18    1
    16    18    19    1
    17    19    20    1
    18    20    21    1
    19    21    22    1
    20    22    23    1
    21    22    24    1
    22    22    25    1
    23     5     6   ar
    24     6     1   ar
    25     9    10    1
@<TRIPOS>MOLECULE
*****
 25 25 0 0 0
SMALL
GASTEIGER

@<TRIPOS>ATOM
      1 C         144.0937  142.7621  164.5532 C.ar    1  UNL1       -0.0178
      2 C         145.2266  142.3222  163.6741 C.ar    1  UNL1       -0.0040
      3 C         145.5773  140.8672  163.5745 C.ar    1  UNL1        0.0028
      4 C         144.7952  139.8521  164.3541 C.ar    1  UNL1        0.0369
      5 C         143.6623  140.2921  165.2332 C.ar    1  UNL1        0.1382
      6 C         143.3115  141.7471  165.3328 C.ar    1  UNL1        0.0327
      7 C         143.7429  144.2172  164.6528 C.3     1  UNL1        0.0435
      8 C         143.6436  145.0514  163.4102 C.3     1  UNL1        0.0737
      9 N         142.3598  145.0932  162.6355 N.3     1  UNL1       -0.2895
     10 H         142.4487  145.8512  161.9588 H       1  UNL1        0.1237
     11 C         141.0583  145.3025  163.3514 C.3     1  UNL1        0.1552
     12 C         137.9217  143.0913  162.3402 C.3     1  UNL1        0.1149
     13 N         139.2084  143.5156  162.9839 N.am    1  UNL1       -0.2749
     14 C         139.9320  142.5773  163.9038 C.3     1  UNL1        0.1149
     15 C         139.7716  144.8782  162.7077 C.2     1  UNL1        0.2419
     16 O         139.0480  145.8165  161.7878 O.2     1  UNL1       -0.2734
     17 O         142.8800  139.2770  166.0129 O.3     1  UNL1       -0.4755
     18 C         141.3805  139.3090  165.9932 C.3     1  UNL1        0.2054
     19 C         140.6319  140.0428  167.0662 C.3     1  UNL1        0.0476
     20 C         139.1395  140.1704  166.9861 C.3     1  UNL1        0.0126
     21 C         138.3595  139.2835  166.0615 C.3     1  UNL1        0.1034
     22 C         137.8842  137.9412  166.5332 C.3     1  UNL1        0.3978
     23 F         137.4090  136.5990  167.0050 F       1  UNL1       -0.1700
     24 F         138.5613  137.2904  165.3636 F       1  UNL1       -0.1700
     25 F         137.2072  138.5920  167.7028 F       1  UNL1       -0.1700
@<TRIPOS>BOND
     1    12    13    1
     2    13    14    1
     3    13    15   am
     4    15    16    2
     5    15    11    1
     6    11     9    1
     7     9     8    1
     8     8     7    1
     9     7     1    1
    10     1     2   ar
    11     2     3   ar
    12     3     4   ar
    13     4     5   ar
    14     5    17    1
    15    17    18    1
    16    18    19    1
    17    19    20    1
    18    20    21    1
    19    21    22    1
    20    22    23    1
    21    22    24    1
    22    22    25    1
    23     5     6   ar
    24     6     1   ar
    25     9    10    1
@<TRIPOS>MOLECULE
*****
 25 25 0 0 0
SMALL
GASTEIGER

@<TRIPOS>ATOM
      1 C         137.9954  140.0131  163.6582 C.ar    1  UNL1       -0.0178
      2 C         138.4778  138.7555  162.9982 C.ar    1  UNL1       -0.0040
      3 C         138.9803  137.6153  163.8334 C.ar    1  UNL1        0.0028
      4 C         139.0003  137.7327  165.3286 C.ar    1  UNL1        0.0369
      5 C         138.5179  138.9903  165.9887 C.ar    1  UNL1        0.1382
      6 C         138.0155  140.1305  165.1535 C.ar    1  UNL1        0.0327
      7 C         137.4930  141.1533  162.8230 C.3     1  UNL1        0.0435
      8 C         137.6201  142.5619  163.3226 C.3     1  UNL1        0.0737
      9 N         137.7735  143.6922  162.3485 N.3     1  UNL1       -0.2895
     10 H         137.0924  143.5352  161.6056 H       1  UNL1        0.1237
     11 C         139.0950  143.9325  161.6807 C.3     1  UNL1        0.1552
     12 C         142.1585  145.2955  163.8037 C.3     1  UNL1        0.1149
     13 N         141.1685  144.3509  163.1892 N.am    1  UNL1       -0.2749
     14 C         141.2620  142.8801  163.4687 C.3     1  UNL1        0.1149
     15 C         140.0851  144.8771  162.2952 C.2     1  UNL1        0.2419
     16 O         139.9916  146.3479  162.0156 O.2     1  UNL1       -0.2734
     17 O         138.5379  139.1078  167.4840 O.3     1  UNL1       -0.4755
     18 C         139.4616  140.0860  168.1471 C.3     1  UNL1        0.2054
     19 C         140.9462  139.9421  167.9880 C.3     1  UNL1        0.0476
     20 C         141.6879  140.8313  167.0345 C.3     1  UNL1        0.0126
     21 C         142.7371  140.2532  166.1318 C.3     1  UNL1        0.1034
     22 C         142.4891  138.9498  165.4320 C.3     1  UNL1        0.3978
     23 F         142.2411  137.6464  164.7322 F       1  UNL1       -0.1700
     24 F         143.4036  138.2570  166.3982 F       1  UNL1       -0.1700
     25 F         141.5746  139.6426  164.4658 F       1  UNL1       -0.1700
@<TRIPOS>BOND
     1    12    13    1
     2    13    14    1
     3    13    15   am
     4    15    16    2
     5    15    11    1
     6    11     9    1
     7     9     8    1
     8     8     7    1
     9     7     1    1
    10     1     2   ar
    11     2     3   ar
    12     3     4   ar
    13     4     5   ar
    14     5    17    1
    15    17    18    1
    16    18    19    1
    17    19    20    1
    18    20    21    1
    19    21    22    1
    20    22    23    1
    21    22    24    1
    22    22    25    1
    23     5     6   ar
    24     6     1   ar
    25     9    10    1
@<TRIPOS>MOLECULE
*****
 25 25 0 0 0
SMALL
GASTEIGER

@<TRIPOS>ATOM
      1 C         140.1140  142.4783  166.2365 C.ar    1  UNL1       -0.0178
      2 C         140.6006  142.5143  167.6549 C.ar    1  UNL1       -0.0040
      3 C         140.4597  141.3021  168.5271 C.ar    1  UNL1        0.0028
      4 C         139.8324  140.0539  167.9810 C.ar    1  UNL1        0.0369
      5 C         139.3458  140.0179  166.5625 C.ar    1  UNL1        0.1382
      6 C         139.4866  141.2301  165.6903 C.ar    1  UNL1        0.0327
      7 C         140.2549  143.6904  165.3643 C.3     1  UNL1        0.0435
      8 C         141.2063  143.6737  164.2048 C.3     1  UNL1        0.0737
      9 N         141.9222  144.9293  163.8039 N.3     1  UNL1       -0.2895
     10 H         141.7109  145.0870  162.8185 H       1  UNL1        0.1237
     11 C         143.4126  145.0213  163.9471 C.3     1  UNL1        0.1552
     12 C         145.5403  141.6840  163.6552 C.3     1  UNL1        0.1149
     13 N         144.7476  142.8978  163.2701 N.am    1  UNL1       -0.2749
     14 C         144.4972  143.2019  161.8226 C.3     1  UNL1        0.1149
     15 C         144.2053  143.8075  164.3323 C.2     1  UNL1        0.2419
     16 O         144.4557  143.5034  165.7797 O.2     1  UNL1       -0.2734
     17 O         138.7184  138.7696  166.0163 O.3     1  UNL1       -0.4755
     18 C         138.8616  138.4329  164.5616 C.3     1  UNL1        0.2054
     19 C         139.9407  137.4929  164.1121 C.3     1  UNL1        0.0476
     20 C         141.2799  137.5103  164.7875 C.3     1  UNL1        0.0126
     21 C         142.2967  138.5464  164.4102 C.3     1  UNL1        0.1034
     22 C         142.7093  139.5899  165.4058 C.3     1  UNL1        0.3978
     23 F         143.1218  140.6332  166.4013 F       1  UNL1       -0.1700
     24 F         142.5129  140.6563  164.3694 F       1  UNL1       -0.1700
     25 F         142.9056  138.5234  166.4421 F       1  UNL1       -0.1700
@<TRIPOS>BOND
     1    12    13    1
     2    13    14    1
     3    13    15   am
     4    15    16    2
     5    15    11    1
     6    11     9    1
     7     9     8    1
     8     8     7    1
     9     7     1    1
    10     1     2   ar
    11     2     3   ar
    12     3     4   ar
    13     4     5   ar
    14     5    17    1
    15    17    18    1
    16    18    19    1
    17    19    20    1
    18    20    21    1
    19    21    22    1
    20    22    23    1
    21    22    24    1
    22    22    25    1
    23     5     6   ar
    24     6     1   ar
    25     9    10    1
@<TRIPOS>MOLECULE
*****
 25 25 0 0 0
SMALL
GASTEIGER

@<TRIPOS>ATOM
      1 C         140.8895  142.1149  164.6588 C.ar    1  UNL1       -0.0178
      2 C         139.7118  142.8427  165.2360 C.ar    1  UNL1       -0.0040
      3 C         138.3286  142.5451  164.7380 C.ar    1  UNL1        0.0028
      4 C         138.1230  141.5196  163.6628 C.ar    1  UNL1        0.0369
      5 C         139.3007  140.7918  163.0856 C.ar    1  UNL1        0.1382
      6 C         140.6840  141.0894  163.5836 C.ar    1  UNL1        0.0327
      7 C         142.2728  142.4125  165.1568 C.3     1  UNL1        0.0435
      8 C         143.3017  142.9752  164.2216 C.3     1  UNL1        0.0737
      9 N         144.7614  142.7839  164.5095 N.3     1  UNL1       -0.2895
     10 H         145.2570  143.5355  164.0300 H       1  UNL1        0.1237
     11 C         145.4402  141.5029  164.1244 C.3     1  UNL1        0.1552
     12 C         143.4433  138.4838  162.4975 C.3     1  UNL1        0.1149
     13 N         144.0643  139.3819  163.5259 N.am    1  UNL1       -0.2749
     14 C         143.9304  139.0572  164.9842 C.3     1  UNL1        0.1149
     15 C         144.8192  140.6047  163.0960 C.2     1  UNL1        0.2419
     16 O         144.9531  140.9294  161.6376 O.2     1  UNL1       -0.2734
     17 O         139.0952  139.7662  162.0103 O.3     1  UNL1       -0.4755
     18 C         138.8477  138.3333  162.3780 C.3     1  UNL1        0.2054
     19 C         139.9287  137.5313  163.0401 C.3     1  UNL1        0.0476
     20 C         139.9937  137.4516  164.5366 C.3     1  UNL1        0.0126
     21 C         138.8328  137.9187  165.3636 C.3     1  UNL1        0.1034
     22 C         138.9913  139.0932  166.2831 C.3     1  UNL1        0.3978
     23 F         139.1498  140.2678  167.2025 F       1  UNL1       -0.1700
     24 F         140.4824  138.9919  166.1556 F       1  UNL1       -0.1700
     25 F         137.5002  139.1946  166.4106 F       1  UNL1       -0.1700
@<TRIPOS>BOND
     1    12    13    1
     2    13    14    1
     3    13    15   am
     4    15    16    2
     5    15    11    1
     6    11     9    1
     7     9     8    1
     8     8     7    1
     9     7     1    1
    10     1     2   ar
    11     2     3   ar
    12     3     4   ar
    13     4     5   ar
    14     5    17    1
    15    17    18    1
    16    18    19    1
    17    19    20    1
    18    20    21    1
    19    21    22    1
    20    22    23    1
    21    22    24    1
    22    22    25    1
    23     5     6   ar
    24     6     1   ar
    25     9    10    1
@<TRIPOS>MOLECULE
*****
 25 25 0 0 0
SMALL
GASTEIGER

@<TRIPOS>ATOM
      1 C         139.5327  140.9498  164.3883 C.ar    1  UNL1       -0.0178
      2 C         139.4157  141.3628  165.8256 C.ar    1  UNL1       -0.0040
      3 C         140.4335  142.2869  166.4256 C.ar    1  UNL1        0.0028
      4 C         141.5682  142.7982  165.5884 C.ar    1  UNL1        0.0369
      5 C         141.6852  142.3852  164.1512 C.ar    1  UNL1        0.1382
      6 C         140.6674  141.4611  163.5511 C.ar    1  UNL1        0.0327
      7 C         138.5149  140.0257  163.7883 C.3     1  UNL1        0.0435
      8 C         138.8286  138.5678  163.6267 C.3     1  UNL1        0.0737
      9 N         139.4838  137.8131  164.7452 N.3     1  UNL1       -0.2895
     10 H         139.4529  138.4177  165.5662 H       1  UNL1        0.1237
     11 C         140.9023  137.3458  164.6048 C.3     1  UNL1        0.1552
     12 C         144.1496  139.5888  164.1872 C.3     1  UNL1        0.1149
     13 N         143.0181  138.6588  163.8635 N.am    1  UNL1       -0.2749
     14 C         142.8708  138.1119  162.4744 C.3     1  UNL1        0.1149
     15 C         142.0338  138.2758  164.9286 C.2     1  UNL1        0.2419
     16 O         142.1811  138.8227  166.3176 O.2     1  UNL1       -0.2734
     17 O         142.8200  142.8965  163.3139 O.3     1  UNL1       -0.4755
     18 C         142.7725  144.2878  162.7553 C.3     1  UNL1        0.2054
     19 C         141.5446  144.7669  162.0391 C.3     1  UNL1        0.0476
     20 C         140.4312  145.4128  162.8093 C.3     1  UNL1        0.0126
     21 C         139.0207  144.9343  162.6320 C.3     1  UNL1        0.1034
     22 C         138.2597  144.3918  163.8053 C.3     1  UNL1        0.3978
     23 F         137.4987  143.8494  164.9786 F       1  UNL1       -0.1700
     24 F         137.3795  143.6121  162.8740 F       1  UNL1       -0.1700
     25 F         139.1398  145.1716  164.7366 F       1  UNL1       -0.1700
@<TRIPOS>BOND
     1    12    13    1
     2    13    14    1
     3    13    15   am
     4    15    16    2
     5    15    11    1
     6    11     9    1
     7     9     8    1
     8     8     7    1
     9     7     1    1
    10     1     2   ar
    11     2     3   ar
    12     3     4   ar
    13     4     5   ar
    14     5    17    1
    15    17    18    1
    16    18    19    1
    17    19    20    1
    18    20    21    1
    19    21    22    1
    20    22    23    1
    21    22    24    1
    22    22    25    1
    23     5     6   ar
    24     6     1   ar
    25     9    10    1
