@<TRIPOS>MOLECULE
*****
 28 30 0 0 0
SMALL
GASTEIGER

@<TRIPOS>ATOM
      1 C         141.9709  140.0104  164.3945 C.ar    1  UNL1        0.1515
      2 C         142.7624  138.7912  164.7646 C.ar    1  UNL1        0.0382
      3 C         143.2644  138.6203  166.1677 C.ar    1  UNL1        0.0032
      4 C         142.9749  139.6685  167.2008 C.ar    1  UNL1        0.0014
      5 C         142.1834  140.8878  166.8307 C.ar    1  UNL1        0.0170
      6 C         141.6814  141.0587  165.4276 C.ar    1  UNL1        0.0823
      7 C         141.8939  141.9361  167.8638 C.2     1  UNL1        0.0125
      8 C         140.7992  141.7191  168.8662 C.2     1  UNL1        0.0873
      9 S         139.9151  140.5109  168.9585 S.3     1  UNL1       -0.0254
     10 C         138.9660  140.7173  170.1016 C.2     1  UNL1        0.2832
     11 O         137.9055  139.7566  170.5515 O.2     1  UNL1       -0.2622
     12 N         139.2636  142.0530  170.7158 N.am    1  UNL1       -0.2425
     13 C         140.3966  142.6721  169.9523 C.2     1  UNL1        0.2583
     14 O         141.0179  144.0096  170.2266 O.2     1  UNL1       -0.2692
     15 H         138.7972  142.4531  171.4850 H       1  UNL1        0.1587
     16 N         140.8898  142.2780  165.0576 N.pl3   1  UNL1       -0.3038
     17 C         139.4101  142.3137  165.3004 C.3     1  UNL1        0.0910
     18 C         138.6185  143.5330  164.9304 C.3     1  UNL1        0.0228
     19 C         139.3068  144.7165  164.3175 C.3     1  UNL1        0.0190
     20 C         140.7866  144.6807  164.0747 C.3     1  UNL1        0.0709
     21 N         141.4749  145.8642  163.4618 N.3     1  UNL1       -0.3208
     22 C         141.5781  143.4615  164.4447 C.3     1  UNL1        0.1062
     23 H         140.7902  146.5970  163.2758 H       1  UNL1        0.1189
     24 H         141.9190  145.5840  162.5874 H       1  UNL1        0.1189
     25 O         141.4689  140.1814  162.9914 O.3     1  UNL1       -0.4779
     26 C         140.6757  138.0239  161.7807 C.3     1  UNL1        0.0472
     27 C         140.3584  139.3118  162.4810 C.3     1  UNL1        0.1662
     28 C         138.9304  139.7302  162.6709 C.3     1  UNL1        0.0472
@<TRIPOS>BOND
     1    26    27    1
     2    27    28    1
     3    27    25    1
     4    25     1    1
     5     1     2   ar
     6     2     3   ar
     7     3     4   ar
     8     4     5   ar
     9     5     7    1
    10     7     8    2
    11     8     9    1
    12     9    10    1
    13    10    11    2
    14    10    12   am
    15    12    13   am
    16    13    14    2
    17     5     6   ar
    18     6    16    1
    19    16    17    1
    20    17    18    1
    21    18    19    1
    22    19    20    1
    23    20    21    1
    24    20    22    1
    25     6     1   ar
    26    22    16    1
    27    13     8    1
    28    12    15    1
    29    21    23    1
    30    21    24    1
@<TRIPOS>MOLECULE
*****
 28 30 0 0 0
SMALL
GASTEIGER

@<TRIPOS>ATOM
      1 C         142.7562  140.7789  164.3223 C.ar    1  UNL1        0.1515
      2 C         143.9490  139.8941  164.5324 C.ar    1  UNL1        0.0382
      3 C         143.9705  138.9231  165.6755 C.ar    1  UNL1        0.0032
      4 C         142.7992  138.8370  166.6085 C.ar    1  UNL1        0.0014
      5 C         141.6064  139.7219  166.3984 C.ar    1  UNL1        0.0170
      6 C         141.5849  140.6928  165.2553 C.ar    1  UNL1        0.0823
      7 C         140.4350  139.6358  167.3315 C.2     1  UNL1        0.0125
      8 C         140.4612  140.3722  168.6380 C.2     1  UNL1        0.0873
      9 S         141.5830  141.2293  169.1447 S.3     1  UNL1       -0.0254
     10 C         141.1853  141.7676  170.4871 C.2     1  UNL1        0.2832
     11 O         142.0104  142.6717  171.3542 O.2     1  UNL1       -0.2622
     12 N         139.8176  141.2431  170.8101 N.am    1  UNL1       -0.2425
     13 C         139.3701  140.3807  169.6673 C.2     1  UNL1        0.2583
     14 O         138.0613  139.6543  169.5709 O.2     1  UNL1       -0.2692
     15 H         139.3039  141.4317  171.6285 H       1  UNL1        0.1587
     16 N         140.3920  141.5777  165.0452 N.pl3   1  UNL1       -0.3038
     17 C         140.3771  142.9647  165.6162 C.3     1  UNL1        0.0910
     18 C         139.1842  143.8495  165.4061 C.3     1  UNL1        0.0228
     19 C         138.0062  143.3474  164.6250 C.3     1  UNL1        0.0190
     20 C         138.0211  141.9603  164.0540 C.3     1  UNL1        0.0709
     21 N         136.8431  141.4582  163.2729 N.3     1  UNL1       -0.3208
     22 C         139.2139  141.0755  164.2641 C.3     1  UNL1        0.1062
     23 H         136.1290  142.1853  163.2295 H       1  UNL1        0.1189
     24 H         136.4591  140.6314  163.7306 H       1  UNL1        0.1189
     25 O         142.7346  141.7499  163.1791 O.3     1  UNL1       -0.4779
     26 C         143.8848  143.6604  164.5121 C.3     1  UNL1        0.0472
     27 C         143.6129  142.9655  163.2110 C.3     1  UNL1        0.1662
     28 C         144.2192  143.4862  161.9416 C.3     1  UNL1        0.0472
@<TRIPOS>BOND
     1    26    27    1
     2    27    28    1
     3    27    25    1
     4    25     1    1
     5     1     2   ar
     6     2     3   ar
     7     3     4   ar
     8     4     5   ar
     9     5     7    1
    10     7     8    2
    11     8     9    1
    12     9    10    1
    13    10    11    2
    14    10    12   am
    15    12    13   am
    16    13    14    2
    17     5     6   ar
    18     6    16    1
    19    16    17    1
    20    17    18    1
    21    18    19    1
    22    19    20    1
    23    20    21    1
    24    20    22    1
    25     6     1   ar
    26    22    16    1
    27    13     8    1
    28    12    15    1
    29    21    23    1
    30    21    24    1
@<TRIPOS>MOLECULE
*****
 28 30 0 0 0
SMALL
GASTEIGER

@<TRIPOS>ATOM
      1 C         141.1056  142.0572  164.2510 C.ar    1  UNL1        0.1515
      2 C         141.9888  143.2676  164.1830 C.ar    1  UNL1        0.0382
      3 C         143.1032  143.4395  165.1722 C.ar    1  UNL1        0.0032
      4 C         143.3343  142.4010  166.2295 C.ar    1  UNL1        0.0014
      5 C         142.4511  141.1905  166.2976 C.ar    1  UNL1        0.0170
      6 C         141.3367  141.0186  165.3083 C.ar    1  UNL1        0.0823
      7 C         142.6822  140.1519  167.3549 C.2     1  UNL1        0.0125
      8 C         142.1731  140.3739  168.7483 C.2     1  UNL1        0.0873
      9 S         141.4202  141.5784  169.2305 S.3     1  UNL1       -0.0254
     10 C         141.1094  141.3794  170.6843 C.2     1  UNL1        0.2832
     11 O         140.3679  142.3393  171.5668 O.2     1  UNL1       -0.2622
     12 N         141.6701  140.0519  171.1008 N.am    1  UNL1       -0.2425
     13 C         142.3275  139.4306  169.9042 C.2     1  UNL1        0.2583
     14 O         143.0182  138.0994  169.8697 O.2     1  UNL1       -0.2692
     15 H         141.6161  139.6577  172.0013 H       1  UNL1        0.1587
     16 N         140.4534  139.8081  165.3764 N.pl3   1  UNL1       -0.3038
     17 C         140.7034  138.6449  164.4629 C.3     1  UNL1        0.0910
     18 C         139.8202  137.4344  164.5310 C.3     1  UNL1        0.0228
     19 C         138.6870  137.3871  165.5126 C.3     1  UNL1        0.0190
     20 C         138.4370  138.5504  166.4262 C.3     1  UNL1        0.0709
     21 N         137.3038  138.5031  167.4078 N.3     1  UNL1       -0.3208
     22 C         139.3202  139.7608  166.3580 C.3     1  UNL1        0.1062
     23 H         136.8125  137.6138  167.3174 H       1  UNL1        0.1189
     24 H         136.6576  139.2692  167.2183 H       1  UNL1        0.1189
     25 O         139.9912  141.8853  163.2618 O.3     1  UNL1       -0.4779
     26 C         137.4868  141.1953  163.3038 C.3     1  UNL1        0.0472
     27 C         138.5749  142.1598  163.6723 C.3     1  UNL1        0.1662
     28 C         138.2466  143.3990  164.4513 C.3     1  UNL1        0.0472
@<TRIPOS>BOND
     1    26    27    1
     2    27    28    1
     3    27    25    1
     4    25     1    1
     5     1     2   ar
     6     2     3   ar
     7     3     4   ar
     8     4     5   ar
     9     5     7    1
    10     7     8    2
    11     8     9    1
    12     9    10    1
    13    10    11    2
    14    10    12   am
    15    12    13   am
    16    13    14    2
    17     5     6   ar
    18     6    16    1
    19    16    17    1
    20    17    18    1
    21    18    19    1
    22    19    20    1
    23    20    21    1
    24    20    22    1
    25     6     1   ar
    26    22    16    1
    27    13     8    1
    28    12    15    1
    29    21    23    1
    30    21    24    1
@<TRIPOS>MOLECULE
*****
 28 30 0 0 0
SMALL
GASTEIGER

@<TRIPOS>ATOM
      1 C         142.5106  140.3037  164.3738 C.ar    1  UNL1        0.1515
      2 C         143.6560  139.3765  164.6535 C.ar    1  UNL1        0.0382
      3 C         143.7856  138.7298  166.0007 C.ar    1  UNL1        0.0032
      4 C         142.7699  139.0103  167.0681 C.ar    1  UNL1        0.0014
      5 C         141.6245  139.9375  166.7884 C.ar    1  UNL1        0.0170
      6 C         141.4948  140.5842  165.4412 C.ar    1  UNL1        0.0823
      7 C         140.6086  140.2180  167.8559 C.2     1  UNL1        0.0125
      8 C         140.9128  141.2108  168.9384 C.2     1  UNL1        0.0873
      9 S         142.1826  141.9960  169.0831 S.3     1  UNL1       -0.0254
     10 C         142.0553  142.8632  170.3004 C.2     1  UNL1        0.2832
     11 O         143.0941  143.8129  170.8190 O.2     1  UNL1       -0.2622
     12 N         140.7067  142.6140  170.9080 N.am    1  UNL1       -0.2425
     13 C         140.0006  141.5927  170.0662 C.2     1  UNL1        0.2583
     14 O         138.6240  141.0489  170.3096 O.2     1  UNL1       -0.2692
     15 H         140.3479  143.0450  171.7172 H       1  UNL1        0.1587
     16 N         140.3494  141.5115  165.1615 N.pl3   1  UNL1       -0.3038
     17 C         140.4072  142.9364  165.6264 C.3     1  UNL1        0.0910
     18 C         139.2617  143.8637  165.3467 C.3     1  UNL1        0.0228
     19 C         138.0585  143.3659  164.6020 C.3     1  UNL1        0.0190
     20 C         138.0007  141.9409  164.1371 C.3     1  UNL1        0.0709
     21 N         136.7975  141.4431  163.3925 N.3     1  UNL1       -0.3208
     22 C         139.1461  141.0137  164.4169 C.3     1  UNL1        0.1062
     23 H         136.1222  142.2009  163.2923 H       1  UNL1        0.1189
     24 H         136.3714  140.6743  163.9100 H       1  UNL1        0.1189
     25 O         142.3810  140.9505  163.0266 O.3     1  UNL1       -0.4779
     26 C         143.0479  140.2665  160.6105 C.3     1  UNL1        0.0472
     27 C         142.1581  140.1056  161.8074 C.3     1  UNL1        0.1662
     28 C         141.0455  139.0998  161.7850 C.3     1  UNL1        0.0472
@<TRIPOS>BOND
     1    26    27    1
     2    27    28    1
     3    27    25    1
     4    25     1    1
     5     1     2   ar
     6     2     3   ar
     7     3     4   ar
     8     4     5   ar
     9     5     7    1
    10     7     8    2
    11     8     9    1
    12     9    10    1
    13    10    11    2
    14    10    12   am
    15    12    13   am
    16    13    14    2
    17     5     6   ar
    18     6    16    1
    19    16    17    1
    20    17    18    1
    21    18    19    1
    22    19    20    1
    23    20    21    1
    24    20    22    1
    25     6     1   ar
    26    22    16    1
    27    13     8    1
    28    12    15    1
    29    21    23    1
    30    21    24    1
@<TRIPOS>MOLECULE
*****
 28 30 0 0 0
SMALL
GASTEIGER

@<TRIPOS>ATOM
      1 C         140.5199  140.0078  164.3534 C.ar    1  UNL1        0.1515
      2 C         139.5472  138.9041  164.6460 C.ar    1  UNL1        0.0382
      3 C         138.8745  138.8326  165.9848 C.ar    1  UNL1        0.0032
      4 C         139.1746  139.8648  167.0310 C.ar    1  UNL1        0.0014
      5 C         140.1473  140.9685  166.7383 C.ar    1  UNL1        0.0170
      6 C         140.8199  141.0400  165.3995 C.ar    1  UNL1        0.0823
      7 C         140.4473  142.0008  167.7845 C.2     1  UNL1        0.0125
      8 C         141.3688  141.6708  168.9212 C.2     1  UNL1        0.0873
      9 S         142.0605  140.3584  169.1429 S.3     1  UNL1       -0.0254
     10 C         142.8796  140.4717  170.3944 C.2     1  UNL1        0.2832
     11 O         143.7341  139.3922  170.9897 O.2     1  UNL1       -0.2622
     12 N         142.6941  141.8542  170.9462 N.am    1  UNL1       -0.2425
     13 C         141.7604  142.5952  170.0357 C.2     1  UNL1        0.2583
     14 O         141.2992  144.0120  170.2092 O.2     1  UNL1       -0.2692
     15 H         143.1118  142.2123  171.7626 H       1  UNL1        0.1587
     16 N         141.7927  142.1437  165.1069 N.pl3   1  UNL1       -0.3038
     17 C         143.2309  142.0020  165.5086 C.3     1  UNL1        0.0910
     18 C         144.2037  143.1058  165.2160 C.3     1  UNL1        0.0228
     19 C         143.7381  144.3512  164.5217 C.3     1  UNL1        0.0190
     20 C         142.2998  144.4929  164.1199 C.3     1  UNL1        0.0709
     21 N         141.8343  145.7384  163.4256 N.3     1  UNL1       -0.3208
     22 C         141.3272  143.3892  164.4126 C.3     1  UNL1        0.1062
     23 H         142.6212  146.3767  163.3086 H       1  UNL1        0.1189
     24 H         141.1108  146.1895  163.9854 H       1  UNL1        0.1189
     25 O         141.1926  140.0792  163.0146 O.3     1  UNL1       -0.4779
     26 C         141.8237  137.8501  161.8388 C.3     1  UNL1        0.0472
     27 C         142.2223  139.0559  162.6370 C.3     1  UNL1        0.1662
     28 C         143.6505  139.2385  163.0575 C.3     1  UNL1        0.0472
@<TRIPOS>BOND
     1    26    27    1
     2    27    28    1
     3    27    25    1
     4    25     1    1
     5     1     2   ar
     6     2     3   ar
     7     3     4   ar
     8     4     5   ar
     9     5     7    1
    10     7     8    2
    11     8     9    1
    12     9    10    1
    13    10    11    2
    14    10    12   am
    15    12    13   am
    16    13    14    2
    17     5     6   ar
    18     6    16    1
    19    16    17    1
    20    17    18    1
    21    18    19    1
    22    19    20    1
    23    20    21    1
    24    20    22    1
    25     6     1   ar
    26    22    16    1
    27    13     8    1
    28    12    15    1
    29    21    23    1
    30    21    24    1
@<TRIPOS>MOLECULE
*****
 28 30 0 0 0
SMALL
GASTEIGER

@<TRIPOS>ATOM
      1 C         143.1258  140.2075  164.7570 C.ar    1  UNL1        0.1515
      2 C         144.3776  140.8066  164.1878 C.ar    1  UNL1        0.0382
      3 C         144.4793  142.2910  163.9975 C.ar    1  UNL1        0.0032
      4 C         143.3293  143.1763  164.3763 C.ar    1  UNL1        0.0014
      5 C         142.0775  142.5772  164.9456 C.ar    1  UNL1        0.0170
      6 C         141.9757  141.0928  165.1359 C.ar    1  UNL1        0.0823
      7 C         140.9274  143.4625  165.3245 C.2     1  UNL1        0.0125
      8 C         139.8130  143.7027  164.3496 C.2     1  UNL1        0.0873
      9 S         139.7118  143.1292  162.9673 S.3     1  UNL1       -0.0254
     10 C         138.4403  143.6306  162.3493 C.2     1  UNL1        0.2832
     11 O         137.9412  143.3056  160.9726 O.2     1  UNL1       -0.2622
     12 N         137.7557  144.5142  163.3496 N.am    1  UNL1       -0.2425
     13 C         138.6041  144.5587  164.5859 C.2     1  UNL1        0.2583
     14 O         138.2973  145.3248  165.8385 O.2     1  UNL1       -0.2692
     15 H         136.8999  144.9826  163.2179 H       1  UNL1        0.1587
     16 N         140.7239  140.4937  165.7052 N.pl3   1  UNL1       -0.3038
     17 C         139.6498  139.9888  164.7880 C.3     1  UNL1        0.0910
     18 C         138.3979  139.3897  165.3572 C.3     1  UNL1        0.0228
     19 C         138.2202  139.2957  166.8437 C.3     1  UNL1        0.0190
     20 C         139.2944  139.8006  167.7609 C.3     1  UNL1        0.0709
     21 N         139.1167  139.7066  169.2474 N.3     1  UNL1       -0.3208
     22 C         140.5462  140.3997  167.1916 C.3     1  UNL1        0.1062
     23 H         138.2154  139.2766  169.4555 H       1  UNL1        0.1189
     24 H         139.1492  140.6416  169.6535 H       1  UNL1        0.1189
     25 O         143.0240  138.7231  164.9474 O.3     1  UNL1       -0.4779
     26 C         141.2574  136.9064  164.3743 C.3     1  UNL1        0.0472
     27 C         142.3054  137.8844  163.9325 C.3     1  UNL1        0.1662
     28 C         142.6348  138.0235  162.4757 C.3     1  UNL1        0.0472
@<TRIPOS>BOND
     1    26    27    1
     2    27    28    1
     3    27    25    1
     4    25     1    1
     5     1     2   ar
     6     2     3   ar
     7     3     4   ar
     8     4     5   ar
     9     5     7    1
    10     7     8    2
    11     8     9    1
    12     9    10    1
    13    10    11    2
    14    10    12   am
    15    12    13   am
    16    13    14    2
    17     5     6   ar
    18     6    16    1
    19    16    17    1
    20    17    18    1
    21    18    19    1
    22    19    20    1
    23    20    21    1
    24    20    22    1
    25     6     1   ar
    26    22    16    1
    27    13     8    1
    28    12    15    1
    29    21    23    1
    30    21    24    1
@<TRIPOS>MOLECULE
*****
 28 30 0 0 0
SMALL
GASTEIGER

@<TRIPOS>ATOM
      1 C         139.8147  140.5347  164.2100 C.ar    1  UNL1        0.1515
      2 C         138.4559  139.9851  164.5284 C.ar    1  UNL1        0.0382
      3 C         138.1335  139.5448  165.9257 C.ar    1  UNL1        0.0032
      4 C         139.1700  139.6541  167.0044 C.ar    1  UNL1        0.0014
      5 C         140.5288  140.2037  166.6859 C.ar    1  UNL1        0.0170
      6 C         140.8512  140.6440  165.2887 C.ar    1  UNL1        0.0823
      7 C         141.5654  140.3130  167.7647 C.2     1  UNL1        0.0125
      8 C         141.5376  141.4718  168.7168 C.2     1  UNL1        0.0873
      9 S         140.5400  142.5920  168.7134 S.3     1  UNL1       -0.0254
     10 C         140.8884  143.5264  169.8340 C.2     1  UNL1        0.2832
     11 O         140.1530  144.7829  170.1951 O.2     1  UNL1       -0.2622
     12 N         142.1013  142.9837  170.5299 N.am    1  UNL1       -0.2425
     13 C         142.5025  141.7139  169.8395 C.2     1  UNL1        0.2583
     14 O         143.6646  140.8396  170.2072 O.2     1  UNL1       -0.2692
     15 H         142.5544  143.3896  171.3039 H       1  UNL1        0.1587
     16 N         142.2101  141.1936  164.9703 N.pl3   1  UNL1       -0.3038
     17 C         143.3472  140.2600  164.6784 C.3     1  UNL1        0.0910
     18 C         144.7061  140.8096  164.3600 C.3     1  UNL1        0.0228
     19 C         144.9278  142.2929  164.3334 C.3     1  UNL1        0.0190
     20 C         143.7906  143.2266  164.6253 C.3     1  UNL1        0.0709
     21 N         144.0123  144.7099  164.5988 N.3     1  UNL1       -0.3208
     22 C         142.4318  142.6769  164.9438 C.3     1  UNL1        0.1062
     23 H         144.9865  144.9039  164.3669 H       1  UNL1        0.1189
     24 H         143.7963  145.1024  165.5151 H       1  UNL1        0.1189
     25 O         140.1371  140.9750  162.8128 O.3     1  UNL1       -0.4779
     26 C         139.7580  142.6520  160.8650 C.3     1  UNL1        0.0472
     27 C         139.6796  142.3177  162.3251 C.3     1  UNL1        0.1662
     28 C         139.1437  143.3261  163.2977 C.3     1  UNL1        0.0472
@<TRIPOS>BOND
     1    26    27    1
     2    27    28    1
     3    27    25    1
     4    25     1    1
     5     1     2   ar
     6     2     3   ar
     7     3     4   ar
     8     4     5   ar
     9     5     7    1
    10     7     8    2
    11     8     9    1
    12     9    10    1
    13    10    11    2
    14    10    12   am
    15    12    13   am
    16    13    14    2
    17     5     6   ar
    18     6    16    1
    19    16    17    1
    20    17    18    1
    21    18    19    1
    22    19    20    1
    23    20    21    1
    24    20    22    1
    25     6     1   ar
    26    22    16    1
    27    13     8    1
    28    12    15    1
    29    21    23    1
    30    21    24    1
@<TRIPOS>MOLECULE
*****
 28 30 0 0 0
SMALL
GASTEIGER

@<TRIPOS>ATOM
      1 C         141.7098  143.4378  163.5787 C.ar    1  UNL1        0.1515
      2 C         142.7782  144.4906  163.5727 C.ar    1  UNL1        0.0382
      3 C         143.9443  144.3811  164.5098 C.ar    1  UNL1        0.0032
      4 C         144.0421  143.2188  165.4529 C.ar    1  UNL1        0.0014
      5 C         142.9737  142.1660  165.4589 C.ar    1  UNL1        0.0170
      6 C         141.8075  142.2755  164.5218 C.ar    1  UNL1        0.0823
      7 C         143.0714  141.0036  166.4021 C.2     1  UNL1        0.0125
      8 C         142.5485  141.1281  167.8025 C.2     1  UNL1        0.0873
      9 S         141.9056  142.3452  168.3987 S.3     1  UNL1       -0.0254
     10 C         141.5365  142.0267  169.8172 C.2     1  UNL1        0.2832
     11 O         140.8697  142.9585  170.7852 O.2     1  UNL1       -0.2622
     12 N         141.9512  140.6127  170.0977 N.am    1  UNL1       -0.2425
     13 C         142.5766  140.0574  168.8525 C.2     1  UNL1        0.2583
     14 O         143.1326  138.6741  168.6866 O.2     1  UNL1       -0.2692
     15 H         141.8335  140.1333  170.9495 H       1  UNL1        0.1587
     16 N         140.7391  141.2226  164.5279 N.pl3   1  UNL1       -0.3038
     17 C         139.5357  141.3803  165.4093 C.3     1  UNL1        0.0910
     18 C         138.4673  140.3274  165.4154 C.3     1  UNL1        0.0228
     19 C         138.6023  139.1169  164.5400 C.3     1  UNL1        0.0190
     20 C         139.8057  138.9592  163.6585 C.3     1  UNL1        0.0709
     21 N         139.9407  137.7487  162.7830 N.3     1  UNL1       -0.3208
     22 C         140.8741  140.0121  163.6525 C.3     1  UNL1        0.1062
     23 H         139.1305  137.1430  162.9131 H       1  UNL1        0.1189
     24 H         140.7889  137.2406  163.0339 H       1  UNL1        0.1189
     25 O         140.5437  143.5473  162.6416 O.3     1  UNL1       -0.4779
     26 C         138.3875  144.4965  163.7369 C.3     1  UNL1        0.0472
     27 C         139.5518  144.6605  162.8055 C.3     1  UNL1        0.1662
     28 C         139.7242  145.9377  162.0380 C.3     1  UNL1        0.0472
@<TRIPOS>BOND
     1    26    27    1
     2    27    28    1
     3    27    25    1
     4    25     1    1
     5     1     2   ar
     6     2     3   ar
     7     3     4   ar
     8     4     5   ar
     9     5     7    1
    10     7     8    2
    11     8     9    1
    12     9    10    1
    13    10    11    2
    14    10    12   am
    15    12    13   am
    16    13    14    2
    17     5     6   ar
    18     6    16    1
    19    16    17    1
    20    17    18    1
    21    18    19    1
    22    19    20    1
    23    20    21    1
    24    20    22    1
    25     6     1   ar
    26    22    16    1
    27    13     8    1
    28    12    15    1
    29    21    23    1
    30    21    24    1
@<TRIPOS>MOLECULE
*****
 28 30 0 0 0
SMALL
GASTEIGER

@<TRIPOS>ATOM
      1 C         140.3937  139.3766  165.0886 C.ar    1  UNL1        0.1515
      2 C         141.2779  138.1711  165.2104 C.ar    1  UNL1        0.0382
      3 C         142.7344  138.2714  164.8660 C.ar    1  UNL1        0.0032
      4 C         143.3067  139.5772  164.3998 C.ar    1  UNL1        0.0014
      5 C         142.4224  140.7827  164.2781 C.ar    1  UNL1        0.0170
      6 C         140.9660  140.6824  164.6225 C.ar    1  UNL1        0.0823
      7 C         142.9947  142.0886  163.8120 C.2     1  UNL1        0.0125
      8 C         142.9842  142.4336  162.3522 C.2     1  UNL1        0.0873
      9 S         142.4387  141.5777  161.2478 S.3     1  UNL1       -0.0254
     10 C         142.6348  142.3102  159.9536 C.2     1  UNL1        0.2832
     11 O         142.2344  141.8200  158.5937 O.2     1  UNL1       -0.2622
     12 N         143.3015  143.6189  160.2581 N.am    1  UNL1       -0.2425
     13 C         143.5175  143.6951  161.7406 C.2     1  UNL1        0.2583
     14 O         144.1549  144.8332  162.4812 O.2     1  UNL1       -0.2692
     15 H         143.5532  144.3069  159.6005 H       1  UNL1        0.1587
     16 N         140.0817  141.8880  164.5008 N.pl3   1  UNL1       -0.3038
     17 C         140.0350  142.8987  165.6081 C.3     1  UNL1        0.0910
     18 C         139.1507  144.1043  165.4864 C.3     1  UNL1        0.0228
     19 C         138.3133  144.2991  164.2573 C.3     1  UNL1        0.0190
     20 C         138.3601  143.2884  163.1499 C.3     1  UNL1        0.0709
     21 N         137.5227  143.4832  161.9207 N.3     1  UNL1       -0.3208
     22 C         139.2443  142.0828  163.2716 C.3     1  UNL1        0.1062
     23 H         136.9883  144.3477  162.0069 H       1  UNL1        0.1189
     24 H         136.8820  142.6963  161.8176 H       1  UNL1        0.1189
     25 O         138.9372  139.2763  165.4330 O.3     1  UNL1       -0.4779
     26 C         139.2252  139.8718  167.9455 C.3     1  UNL1        0.0472
     27 C         138.5140  139.1151  166.8630 C.3     1  UNL1        0.1662
     28 C         137.3797  138.1972  167.2106 C.3     1  UNL1        0.0472
@<TRIPOS>BOND
     1    26    27    1
     2    27    28    1
     3    27    25    1
     4    25     1    1
     5     1     2   ar
     6     2     3   ar
     7     3     4   ar
     8     4     5   ar
     9     5     7    1
    10     7     8    2
    11     8     9    1
    12     9    10    1
    13    10    11    2
    14    10    12   am
    15    12    13   am
    16    13    14    2
    17     5     6   ar
    18     6    16    1
    19    16    17    1
    20    17    18    1
    21    18    19    1
    22    19    20    1
    23    20    21    1
    24    20    22    1
    25     6     1   ar
    26    22    16    1
    27    13     8    1
    28    12    15    1
    29    21    23    1
    30    21    24    1
