@<TRIPOS>MOLECULE
*****
 25 28 0 0 0
SMALL
GASTEIGER

@<TRIPOS>ATOM
      1 C         140.3502  140.4625  167.3957 C.ar    1  UNL1        0.0437
      2 C         139.2393  139.9864  168.2841 C.ar    1  UNL1        0.0017
      3 C         138.1432  139.1310  167.7214 C.ar    1  UNL1       -0.0001
      4 C         138.1580  138.7516  166.2703 C.ar    1  UNL1        0.0000
      5 C         139.2689  139.2276  165.3818 C.ar    1  UNL1        0.0014
      6 C         140.3650  140.0830  165.9446 C.ar    1  UNL1        0.0017
      7 C         144.4080  142.6132  170.1070 C.3     1  UNL1        0.0597
      8 C         143.2835  141.8749  169.4436 C.2     1  UNL1        0.1396
      9 N         142.4501  142.3783  168.3024 N.2     1  UNL1       -0.2227
     10 C         141.4464  141.3180  167.9584 C.3     1  UNL1        0.2764
     11 N         141.6594  140.1593  168.8869 N.2     1  UNL1       -0.0450
     12 C         142.7948  140.5035  169.8049 C.2     1  UNL1        0.3285
     13 N         143.3448  139.6297  170.8929 N.pl3   1  UNL1       -0.2454
     14 H         142.9548  138.7403  171.0544 H       1  UNL1        0.2885
     15 H         144.0959  139.9457  171.4455 H       1  UNL1        0.2885
     16 C         141.0043  142.2978  166.9123 C.3     1  UNL1        0.0715
     17 C         139.9920  143.2755  166.3933 C.3     1  UNL1        0.0068
     18 C         141.2507  143.0171  165.6193 C.3     1  UNL1        0.0068
     19 C         139.2836  138.8482  163.9307 C.ar    1  UNL1        0.0200
     20 C         140.3117  137.8837  163.4181 C.ar    1  UNL1        0.0989
     21 N         140.3265  137.5043  161.9669 N.ar    1  UNL1       -0.2414
     22 C         139.3132  138.0893  161.0284 C.ar    1  UNL1        0.1102
     23 C         138.2851  139.0538  161.5410 C.ar    1  UNL1        0.0768
     24 CL        137.2717  139.6388  160.6025 Cl      1  UNL1       -0.0806
     25 C         138.2703  139.4332  162.9922 C.ar    1  UNL1        0.0145
@<TRIPOS>BOND
     1     7     8    1
     2     8     9    2
     3     9    10    1
     4    10     1    1
     5     1     2   ar
     6     2     3   ar
     7     3     4   ar
     8     4     5   ar
     9     5    19    1
    10    19    20   ar
    11    20    21   ar
    12    21    22   ar
    13    22    23   ar
    14    23    24    1
    15    23    25   ar
    16     5     6   ar
    17    10    16    1
    18    16    17    1
    19    17    18    1
    20    10    11    1
    21    11    12    2
    22    12    13    1
    23    12     8    1
    24     6     1   ar
    25    18    16    1
    26    25    19   ar
    27    13    14    1
    28    13    15    1
@<TRIPOS>MOLECULE
*****
 25 28 0 0 0
SMALL
GASTEIGER

@<TRIPOS>ATOM
      1 C         140.2918  140.0071  166.8483 C.ar    1  UNL1        0.0437
      2 C         139.1757  139.0134  166.7179 C.ar    1  UNL1        0.0017
      3 C         138.0521  139.2693  165.7578 C.ar    1  UNL1       -0.0001
      4 C         138.0446  140.5188  164.9279 C.ar    1  UNL1        0.0000
      5 C         139.1606  141.5125  165.0583 C.ar    1  UNL1        0.0014
      6 C         140.2842  141.2566  166.0185 C.ar    1  UNL1        0.0017
      7 C         143.5163  139.4169  171.0551 C.3     1  UNL1        0.0597
      8 C         142.4917  139.6304  169.9805 C.2     1  UNL1        0.1396
      9 N         142.6992  139.4197  168.5100 N.2     1  UNL1       -0.2227
     10 C         141.4154  139.7512  167.8086 C.3     1  UNL1        0.2764
     11 N         140.4145  140.1669  168.8456 N.2     1  UNL1       -0.0450
     12 C         141.0797  140.0922  170.1880 C.2     1  UNL1        0.3285
     13 N         140.4444  140.4215  171.5063 N.pl3   1  UNL1       -0.2454
     14 H         139.5063  140.7180  171.5402 H       1  UNL1        0.2885
     15 H         140.9656  140.3411  172.3376 H       1  UNL1        0.2885
     16 C         142.1814  139.3891  166.5708 C.3     1  UNL1        0.0715
     17 C         142.4738  138.4249  165.4595 C.3     1  UNL1        0.0068
     18 C         143.2159  139.7261  165.5382 C.3     1  UNL1        0.0068
     19 C         139.1530  142.7620  164.2285 C.ar    1  UNL1        0.0200
     20 C         137.9092  143.1676  163.4948 C.ar    1  UNL1        0.0989
     21 N         137.9016  144.4171  162.6650 N.ar    1  UNL1       -0.2414
     22 C         139.1379  145.2611  162.5689 C.ar    1  UNL1        0.1102
     23 C         140.3817  144.8556  163.3026 C.ar    1  UNL1        0.0768
     24 CL        141.6181  145.6996  163.2065 Cl      1  UNL1       -0.0806
     25 C         140.3893  143.6060  164.1324 C.ar    1  UNL1        0.0145
@<TRIPOS>BOND
     1     7     8    1
     2     8     9    2
     3     9    10    1
     4    10     1    1
     5     1     2   ar
     6     2     3   ar
     7     3     4   ar
     8     4     5   ar
     9     5    19    1
    10    19    20   ar
    11    20    21   ar
    12    21    22   ar
    13    22    23   ar
    14    23    24    1
    15    23    25   ar
    16     5     6   ar
    17    10    16    1
    18    16    17    1
    19    17    18    1
    20    10    11    1
    21    11    12    2
    22    12    13    1
    23    12     8    1
    24     6     1   ar
    25    18    16    1
    26    25    19   ar
    27    13    14    1
    28    13    15    1
@<TRIPOS>MOLECULE
*****
 25 28 0 0 0
SMALL
GASTEIGER

@<TRIPOS>ATOM
      1 C         140.2259  140.8210  167.3812 C.ar    1  UNL1        0.0437
      2 C         139.3857  139.6752  167.8620 C.ar    1  UNL1        0.0017
      3 C         138.3115  139.1111  166.9800 C.ar    1  UNL1       -0.0001
      4 C         138.0777  139.6926  165.6173 C.ar    1  UNL1        0.0000
      5 C         138.9179  140.8383  165.1365 C.ar    1  UNL1        0.0014
      6 C         139.9921  141.4025  166.0184 C.ar    1  UNL1        0.0017
      7 C         143.2309  143.5846  170.8127 C.3     1  UNL1        0.0597
      8 C         142.2621  142.9132  169.8850 C.2     1  UNL1        0.1396
      9 N         142.5485  141.7179  169.0253 N.2     1  UNL1       -0.2227
     10 C         141.3001  141.3852  168.2631 C.3     1  UNL1        0.2764
     11 N         140.2421  142.3749  168.6518 N.2     1  UNL1       -0.0450
     12 C         140.8366  143.3194  169.6542 C.2     1  UNL1        0.3285
     13 N         140.1298  144.4680  170.3105 N.pl3   1  UNL1       -0.2454
     14 H         139.1883  144.6559  170.0927 H       1  UNL1        0.2885
     15 H         140.6074  145.0341  170.9591 H       1  UNL1        0.2885
     16 C         142.1336  140.2775  167.6901 C.3     1  UNL1        0.0715
     17 C         142.8345  139.6503  166.5217 C.3     1  UNL1        0.0068
     18 C         142.8762  138.9862  167.8660 C.3     1  UNL1        0.0068
     19 C         138.6841  141.4199  163.7737 C.ar    1  UNL1        0.0200
     20 C         137.7656  140.7280  162.8105 C.ar    1  UNL1        0.0989
     21 N         137.5318  141.3096  161.4478 N.ar    1  UNL1       -0.2414
     22 C         138.2163  142.5830  161.0482 C.ar    1  UNL1        0.1102
     23 C         139.1348  143.2748  162.0113 C.ar    1  UNL1        0.0768
     24 CL        139.8194  144.5483  161.6118 Cl      1  UNL1       -0.0806
     25 C         139.3686  142.6933  163.3741 C.ar    1  UNL1        0.0145
@<TRIPOS>BOND
     1     7     8    1
     2     8     9    2
     3     9    10    1
     4    10     1    1
     5     1     2   ar
     6     2     3   ar
     7     3     4   ar
     8     4     5   ar
     9     5    19    1
    10    19    20   ar
    11    20    21   ar
    12    21    22   ar
    13    22    23   ar
    14    23    24    1
    15    23    25   ar
    16     5     6   ar
    17    10    16    1
    18    16    17    1
    19    17    18    1
    20    10    11    1
    21    11    12    2
    22    12    13    1
    23    12     8    1
    24     6     1   ar
    25    18    16    1
    26    25    19   ar
    27    13    14    1
    28    13    15    1
@<TRIPOS>MOLECULE
*****
 25 28 0 0 0
SMALL
GASTEIGER

@<TRIPOS>ATOM
      1 C         139.4300  140.7412  164.8187 C.ar    1  UNL1        0.0437
      2 C         138.3989  139.6531  164.8715 C.ar    1  UNL1        0.0017
      3 C         138.0488  139.0147  166.1829 C.ar    1  UNL1       -0.0001
      4 C         138.7300  139.4643  167.4415 C.ar    1  UNL1        0.0000
      5 C         139.7611  140.5523  167.3886 C.ar    1  UNL1        0.0014
      6 C         140.1111  141.1908  166.0772 C.ar    1  UNL1        0.0017
      7 C         139.7992  143.7149  160.4070 C.3     1  UNL1        0.0597
      8 C         139.5671  142.9762  161.6917 C.2     1  UNL1        0.1396
      9 N         140.3532  141.7981  162.1857 N.2     1  UNL1       -0.2227
     10 C         139.7801  141.3797  163.5073 C.3     1  UNL1        0.2764
     11 N         138.6398  142.2992  163.8300 N.2     1  UNL1       -0.0450
     12 C         138.5081  143.2860  162.7078 C.2     1  UNL1        0.3285
     13 N         137.4954  144.3887  162.6178 N.pl3   1  UNL1       -0.2454
     14 H         136.8373  144.5128  163.3394 H       1  UNL1        0.2885
     15 H         137.4888  144.9884  161.8370 H       1  UNL1        0.2885
     16 C         140.8472  140.3267  163.4587 C.3     1  UNL1        0.0715
     17 C         141.2639  138.9109  163.1908 C.3     1  UNL1        0.0068
     18 C         142.2789  139.9186  163.6426 C.3     1  UNL1        0.0068
     19 C         140.4422  141.0019  168.6472 C.ar    1  UNL1        0.0200
     20 C         139.6944  140.9974  169.9474 C.ar    1  UNL1        0.0989
     21 N         140.3755  141.4469  171.2060 N.ar    1  UNL1       -0.2414
     22 C         141.8045  141.9010  171.1643 C.ar    1  UNL1        0.1102
     23 C         142.5523  141.9055  169.8641 C.ar    1  UNL1        0.0768
     24 CL        143.9814  142.3596  169.8223 Cl      1  UNL1       -0.0806
     25 C         141.8712  141.4560  168.6055 C.ar    1  UNL1        0.0145
@<TRIPOS>BOND
     1     7     8    1
     2     8     9    2
     3     9    10    1
     4    10     1    1
     5     1     2   ar
     6     2     3   ar
     7     3     4   ar
     8     4     5   ar
     9     5    19    1
    10    19    20   ar
    11    20    21   ar
    12    21    22   ar
    13    22    23   ar
    14    23    24    1
    15    23    25   ar
    16     5     6   ar
    17    10    16    1
    18    16    17    1
    19    17    18    1
    20    10    11    1
    21    11    12    2
    22    12    13    1
    23    12     8    1
    24     6     1   ar
    25    18    16    1
    26    25    19   ar
    27    13    14    1
    28    13    15    1
@<TRIPOS>MOLECULE
*****
 25 28 0 0 0
SMALL
GASTEIGER

@<TRIPOS>ATOM
      1 C         139.5633  141.7073  164.6634 C.ar    1  UNL1        0.0437
      2 C         138.5677  140.6059  164.4497 C.ar    1  UNL1        0.0017
      3 C         138.2319  139.6701  165.5728 C.ar    1  UNL1       -0.0001
      4 C         138.8916  139.8358  166.9097 C.ar    1  UNL1        0.0000
      5 C         139.8872  140.9371  167.1235 C.ar    1  UNL1        0.0014
      6 C         140.2230  141.8729  166.0003 C.ar    1  UNL1        0.0017
      7 C         141.3967  144.1546  160.2940 C.3     1  UNL1        0.0597
      8 C         140.9712  143.3339  161.4753 C.2     1  UNL1        0.1396
      9 N         140.0459  143.7772  162.5695 N.2     1  UNL1       -0.2227
     10 C         139.8992  142.6431  163.5402 C.3     1  UNL1        0.2764
     11 N         140.7338  141.4989  163.0460 N.2     1  UNL1       -0.0450
     12 C         141.3964  141.9259  161.7697 C.2     1  UNL1        0.3285
     13 N         142.3215  141.0913  160.9346 N.pl3   1  UNL1       -0.2454
     14 H         142.5417  140.1729  161.2123 H       1  UNL1        0.2885
     15 H         142.7086  141.4621  160.1087 H       1  UNL1        0.2885
     16 C         138.9944  143.5916  164.2693 C.3     1  UNL1        0.0715
     17 C         138.8088  144.7829  165.1618 C.3     1  UNL1        0.0068
     18 C         137.6128  144.0433  164.6397 C.3     1  UNL1        0.0068
     19 C         140.5469  141.1028  168.4604 C.ar    1  UNL1        0.0200
     20 C         139.8178  140.7084  169.7105 C.ar    1  UNL1        0.0989
     21 N         140.4776  140.8741  171.0474 N.ar    1  UNL1       -0.2414
     22 C         141.8664  141.4340  171.1342 C.ar    1  UNL1        0.1102
     23 C         142.5955  141.8283  169.8840 C.ar    1  UNL1        0.0768
     24 CL        143.9844  142.3883  169.9708 Cl      1  UNL1       -0.0806
     25 C         141.9358  141.6627  168.5471 C.ar    1  UNL1        0.0145
@<TRIPOS>BOND
     1     7     8    1
     2     8     9    2
     3     9    10    1
     4    10     1    1
     5     1     2   ar
     6     2     3   ar
     7     3     4   ar
     8     4     5   ar
     9     5    19    1
    10    19    20   ar
    11    20    21   ar
    12    21    22   ar
    13    22    23   ar
    14    23    24    1
    15    23    25   ar
    16     5     6   ar
    17    10    16    1
    18    16    17    1
    19    17    18    1
    20    10    11    1
    21    11    12    2
    22    12    13    1
    23    12     8    1
    24     6     1   ar
    25    18    16    1
    26    25    19   ar
    27    13    14    1
    28    13    15    1
@<TRIPOS>MOLECULE
*****
 25 28 0 0 0
SMALL
GASTEIGER

@<TRIPOS>ATOM
      1 C         141.6813  140.0125  166.9427 C.ar    1  UNL1        0.0437
      2 C         142.8810  139.1558  167.2197 C.ar    1  UNL1        0.0017
      3 C         143.2816  138.0886  166.2447 C.ar    1  UNL1       -0.0001
      4 C         142.4826  137.8782  164.9928 C.ar    1  UNL1        0.0000
      5 C         141.2830  138.7349  164.7158 C.ar    1  UNL1        0.0014
      6 C         140.8823  139.8021  165.6908 C.ar    1  UNL1        0.0017
      7 C         139.5572  142.9921  170.8226 C.3     1  UNL1        0.0597
      8 C         140.0562  142.0303  169.7852 C.2     1  UNL1        0.1396
      9 N         141.0883  142.3217  168.7366 N.2     1  UNL1       -0.2227
     10 C         141.2806  141.0798  167.9176 C.3     1  UNL1        0.2764
     11 N         140.3672  140.0208  168.4602 N.2     1  UNL1       -0.0450
     12 C         139.6104  140.6083  169.6144 C.2     1  UNL1        0.3285
     13 N         138.5877  139.8983  170.4509 N.pl3   1  UNL1       -0.2454
     14 H         138.3613  138.9594  170.2600 H       1  UNL1        0.2885
     15 H         138.1427  140.3713  171.1909 H       1  UNL1        0.2885
     16 C         142.2777  141.9157  167.1713 C.3     1  UNL1        0.0715
     17 C         142.7066  142.6129  165.9144 C.3     1  UNL1        0.0068
     18 C         143.5759  142.6662  167.1356 C.3     1  UNL1        0.0068
     19 C         140.4839  138.5245  163.4639 C.ar    1  UNL1        0.0200
     20 C         139.0230  138.1962  163.5528 C.ar    1  UNL1        0.0989
     21 N         138.2240  137.9858  162.3009 N.ar    1  UNL1       -0.2414
     22 C         138.8859  138.1036  160.9601 C.ar    1  UNL1        0.1102
     23 C         140.3468  138.4319  160.8711 C.ar    1  UNL1        0.0768
     24 CL        141.0088  138.5497  159.5302 Cl      1  UNL1       -0.0806
     25 C         141.1458  138.6423  162.1230 C.ar    1  UNL1        0.0145
@<TRIPOS>BOND
     1     7     8    1
     2     8     9    2
     3     9    10    1
     4    10     1    1
     5     1     2   ar
     6     2     3   ar
     7     3     4   ar
     8     4     5   ar
     9     5    19    1
    10    19    20   ar
    11    20    21   ar
    12    21    22   ar
    13    22    23   ar
    14    23    24    1
    15    23    25   ar
    16     5     6   ar
    17    10    16    1
    18    16    17    1
    19    17    18    1
    20    10    11    1
    21    11    12    2
    22    12    13    1
    23    12     8    1
    24     6     1   ar
    25    18    16    1
    26    25    19   ar
    27    13    14    1
    28    13    15    1
@<TRIPOS>MOLECULE
*****
 25 28 0 0 0
SMALL
GASTEIGER

@<TRIPOS>ATOM
      1 C         142.0911  142.3637  166.0373 C.ar    1  UNL1        0.0437
      2 C         143.5565  142.5900  166.2640 C.ar    1  UNL1        0.0017
      3 C         144.3458  143.4198  165.2954 C.ar    1  UNL1       -0.0001
      4 C         143.6698  144.0235  164.1001 C.ar    1  UNL1        0.0000
      5 C         142.2044  143.7972  163.8735 C.ar    1  UNL1        0.0014
      6 C         141.4151  142.9674  164.8421 C.ar    1  UNL1        0.0017
      7 C         139.1814  140.4053  170.0549 C.3     1  UNL1        0.0597
      8 C         139.9896  141.1040  169.0020 C.2     1  UNL1        0.1396
      9 N         140.5754  140.4704  167.7751 N.2     1  UNL1       -0.2227
     10 C         141.3017  141.5338  167.0059 C.3     1  UNL1        0.2764
     11 N         141.1647  142.8248  167.7574 N.2     1  UNL1       -0.0450
     12 C         140.3538  142.5592  168.9911 C.2     1  UNL1        0.3285
     13 N         139.9738  143.5709  170.0312 N.pl3   1  UNL1       -0.2454
     14 H         140.2619  144.5074  169.9353 H       1  UNL1        0.2885
     15 H         139.4363  143.2985  170.8097 H       1  UNL1        0.2885
     16 C         141.6037  140.4164  166.0519 C.3     1  UNL1        0.0715
     17 C         141.1738  139.5050  164.9408 C.3     1  UNL1        0.0068
     18 C         142.5567  139.3924  165.5106 C.3     1  UNL1        0.0068
     19 C         141.5284  144.4008  162.6782 C.ar    1  UNL1        0.0200
     20 C         140.3035  145.2479  162.8575 C.ar    1  UNL1        0.0989
     21 N         139.6275  145.8515  161.6623 N.ar    1  UNL1       -0.2414
     22 C         140.1763  145.6081  160.2877 C.ar    1  UNL1        0.1102
     23 C         141.4012  144.7611  160.1084 C.ar    1  UNL1        0.0768
     24 CL        141.9501  144.5176  158.7338 Cl      1  UNL1       -0.0806
     25 C         142.0772  144.1574  161.3037 C.ar    1  UNL1        0.0145
@<TRIPOS>BOND
     1     7     8    1
     2     8     9    2
     3     9    10    1
     4    10     1    1
     5     1     2   ar
     6     2     3   ar
     7     3     4   ar
     8     4     5   ar
     9     5    19    1
    10    19    20   ar
    11    20    21   ar
    12    21    22   ar
    13    22    23   ar
    14    23    24    1
    15    23    25   ar
    16     5     6   ar
    17    10    16    1
    18    16    17    1
    19    17    18    1
    20    10    11    1
    21    11    12    2
    22    12    13    1
    23    12     8    1
    24     6     1   ar
    25    18    16    1
    26    25    19   ar
    27    13    14    1
    28    13    15    1
@<TRIPOS>MOLECULE
*****
 25 28 0 0 0
SMALL
GASTEIGER

@<TRIPOS>ATOM
      1 C         139.5321  139.7670  164.4755 C.ar    1  UNL1        0.0437
      2 C         138.4422  138.8493  164.9444 C.ar    1  UNL1        0.0017
      3 C         138.1371  138.7338  166.4084 C.ar    1  UNL1       -0.0001
      4 C         138.9219  139.5360  167.4037 C.ar    1  UNL1        0.0000
      5 C         140.0118  140.4538  166.9348 C.ar    1  UNL1        0.0014
      6 C         140.3169  140.5693  165.4708 C.ar    1  UNL1        0.0017
      7 C         141.3772  139.3422  159.4898 C.3     1  UNL1        0.0597
      8 C         140.9661  139.3406  160.9323 C.2     1  UNL1        0.1396
      9 N         139.9216  140.2207  161.5525 N.2     1  UNL1       -0.2227
     10 C         139.8373  139.8825  163.0114 C.3     1  UNL1        0.2764
     11 N         140.8295  138.7935  163.2930 N.2     1  UNL1       -0.0450
     12 C         141.5272  138.4585  162.0080 C.2     1  UNL1        0.3285
     13 N         142.5979  137.4233  161.8300 N.pl3   1  UNL1       -0.2454
     14 H         142.9013  136.8913  162.6008 H       1  UNL1        0.2885
     15 H         142.9973  137.2757  160.9423 H       1  UNL1        0.2885
     16 C         138.7812  140.9475  163.0359 C.3     1  UNL1        0.0715
     17 C         138.3828  142.3772  163.2534 C.3     1  UNL1        0.0068
     18 C         137.3503  141.3623  162.8610 C.3     1  UNL1        0.0068
     19 C         140.7966  141.2561  167.9301 C.ar    1  UNL1        0.0200
     20 C         142.1761  140.8192  168.3248 C.ar    1  UNL1        0.0989
     21 N         142.9609  141.6214  169.3200 N.ar    1  UNL1       -0.2414
     22 C         142.3661  142.8606  169.9206 C.ar    1  UNL1        0.1102
     23 C         140.9865  143.2975  169.5258 C.ar    1  UNL1        0.0768
     24 CL        140.3916  144.5367  170.1264 Cl      1  UNL1       -0.0806
     25 C         140.2018  142.4952  168.5306 C.ar    1  UNL1        0.0145
@<TRIPOS>BOND
     1     7     8    1
     2     8     9    2
     3     9    10    1
     4    10     1    1
     5     1     2   ar
     6     2     3   ar
     7     3     4   ar
     8     4     5   ar
     9     5    19    1
    10    19    20   ar
    11    20    21   ar
    12    21    22   ar
    13    22    23   ar
    14    23    24    1
    15    23    25   ar
    16     5     6   ar
    17    10    16    1
    18    16    17    1
    19    17    18    1
    20    10    11    1
    21    11    12    2
    22    12    13    1
    23    12     8    1
    24     6     1   ar
    25    18    16    1
    26    25    19   ar
    27    13    14    1
    28    13    15    1
@<TRIPOS>MOLECULE
*****
 25 28 0 0 0
SMALL
GASTEIGER

@<TRIPOS>ATOM
      1 C         142.2175  140.4807  166.8312 C.ar    1  UNL1        0.0437
      2 C         142.7840  139.1321  167.1633 C.ar    1  UNL1        0.0017
      3 C         143.7046  138.4468  166.1975 C.ar    1  UNL1       -0.0001
      4 C         144.0586  139.1101  164.8995 C.ar    1  UNL1        0.0000
      5 C         143.4921  140.4586  164.5673 C.ar    1  UNL1        0.0014
      6 C         142.5715  141.1440  165.5332 C.ar    1  UNL1        0.0017
      7 C         139.9239  143.2804  170.7483 C.3     1  UNL1        0.0597
      8 C         140.7156  142.5412  169.7106 C.2     1  UNL1        0.1396
      9 N         140.1503  141.7222  168.5882 N.2     1  UNL1       -0.2227
     10 C         141.2969  141.1661  167.7970 C.3     1  UNL1        0.2764
     11 N         142.5709  141.6415  168.4303 N.2     1  UNL1       -0.0450
     12 C         142.2116  142.4914  169.6130 C.2     1  UNL1        0.3285
     13 N         143.1785  143.1719  170.5359 N.pl3   1  UNL1       -0.2454
     14 H         144.1475  143.0792  170.3891 H       1  UNL1        0.2885
     15 H         142.8440  143.7113  171.2886 H       1  UNL1        0.2885
     16 C         140.2154  140.5474  166.9618 C.3     1  UNL1        0.0715
     17 C         139.3304  139.3800  166.6396 C.3     1  UNL1        0.0068
     18 C         139.2273  140.6433  165.8373 C.3     1  UNL1        0.0068
     19 C         143.8461  141.1219  163.2693 C.ar    1  UNL1        0.0200
     20 C         144.3792  142.5239  163.2644 C.ar    1  UNL1        0.0989
     21 N         144.7333  143.1872  161.9665 N.ar    1  UNL1       -0.2414
     22 C         144.5542  142.4484  160.6734 C.ar    1  UNL1        0.1102
     23 C         144.0211  141.0464  160.6783 C.ar    1  UNL1        0.0768
     24 CL        143.8419  140.3075  159.3852 Cl      1  UNL1       -0.0806
     25 C         143.6670  140.3831  161.9763 C.ar    1  UNL1        0.0145
@<TRIPOS>BOND
     1     7     8    1
     2     8     9    2
     3     9    10    1
     4    10     1    1
     5     1     2   ar
     6     2     3   ar
     7     3     4   ar
     8     4     5   ar
     9     5    19    1
    10    19    20   ar
    11    20    21   ar
    12    21    22   ar
    13    22    23   ar
    14    23    24    1
    15    23    25   ar
    16     5     6   ar
    17    10    16    1
    18    16    17    1
    19    17    18    1
    20    10    11    1
    21    11    12    2
    22    12    13    1
    23    12     8    1
    24     6     1   ar
    25    18    16    1
    26    25    19   ar
    27    13    14    1
    28    13    15    1
