@<TRIPOS>MOLECULE
*****
 30 33 0 0 0
SMALL
GASTEIGER

@<TRIPOS>ATOM
      1 O         143.3954  141.4625  162.6436 O.2     1  UNL1       -0.2734
      2 C         143.5307  140.1206  163.3001 C.2     1  UNL1        0.2420
      3 N         143.2888  139.9789  164.7738 N.am    1  UNL1       -0.2760
      4 C         143.4242  138.6370  165.4303 C.3     1  UNL1        0.0983
      5 C         143.1823  138.4953  166.9039 C.3     1  UNL1        0.0476
      6 C         142.8051  139.6954  167.7209 C.ar    1  UNL1       -0.0229
      7 C         142.5632  139.5536  169.1945 C.ar    1  UNL1       -0.0045
      8 C         142.1861  140.7537  170.0114 C.ar    1  UNL1       -0.0003
      9 C         142.0507  142.0956  169.3548 C.ar    1  UNL1       -0.0003
     10 C         142.2926  142.2373  167.8813 C.ar    1  UNL1       -0.0030
     11 C         142.6698  141.0372  167.0643 C.ar    1  UNL1       -0.0082
     12 C         142.9117  141.1790  165.5907 C.3     1  UNL1        0.0975
     13 C         142.7763  142.5208  164.9341 C.3     1  UNL1        0.0224
     14 C         141.4475  142.9618  164.3959 C.3     1  UNL1        0.0020
     15 C         141.3121  144.3037  163.7393 C.3     1  UNL1        0.0001
     16 C         142.5057  145.2046  163.6210 C.3     1  UNL1        0.0000
     17 C         143.8345  144.7636  164.1592 C.3     1  UNL1        0.0001
     18 C         143.9698  143.4217  164.8158 C.3     1  UNL1        0.0020
     19 C         143.9079  138.9205  162.4832 C.3     1  UNL1        0.1552
     20 N         142.8646  137.9098  162.1093 N.3     1  UNL1       -0.2879
     21 H         142.9562  137.1351  162.7664 H       1  UNL1        0.1238
     22 C         141.4155  138.2974  162.0961 C.3     1  UNL1        0.0961
     23 C         140.5534  138.0175  163.2913 C.3     1  UNL1        0.1027
     24 O         141.2436  136.6930  163.1520 O.3     1  UNL1       -0.3854
     25 C         140.1627  139.4392  163.0154 C.3     1  UNL1        0.0283
     26 C         139.1495  140.1210  163.8864 C.3     1  UNL1        0.0024
     27 C         138.5271  139.3811  165.0332 C.3     1  UNL1        0.0002
     28 C         138.9178  137.9594  165.3091 C.3     1  UNL1        0.0024
     29 C         139.9310  137.2776  164.4381 C.3     1  UNL1        0.0283
     30 H         141.8519  136.7231  162.3971 H       1  UNL1        0.2103
@<TRIPOS>BOND
     1     1     2    2
     2     2    19    1
     3    19    20    1
     4    20    22    1
     5    22    23    1
     6    23    24    1
     7    23    25    1
     8    25    26    1
     9    26    27    1
    10    27    28    1
    11    28    29    1
    12     2     3   am
    13     3     4    1
    14     4     5    1
    15     5     6    1
    16     6     7   ar
    17     7     8   ar
    18     8     9   ar
    19     9    10   ar
    20    10    11   ar
    21    11    12    1
    22    12    13    1
    23    13    14    1
    24    14    15    1
    25    15    16    1
    26    16    17    1
    27    17    18    1
    28    29    23    1
    29    12     3    1
    30    18    13    1
    31    11     6   ar
    32    20    21    1
    33    24    30    1
@<TRIPOS>MOLECULE
*****
 30 33 0 0 0
SMALL
GASTEIGER

@<TRIPOS>ATOM
      1 O         141.2903  139.3129  162.9713 O.2     1  UNL1       -0.2734
      2 C         139.9451  139.0781  163.5920 C.2     1  UNL1        0.2420
      3 N         139.7402  139.3313  165.0563 N.am    1  UNL1       -0.2760
      4 C         138.3950  139.0965  165.6770 C.3     1  UNL1        0.0983
      5 C         138.1901  139.3497  167.1411 C.3     1  UNL1        0.0476
      6 C         139.3304  139.8378  167.9847 C.ar    1  UNL1       -0.0229
      7 C         139.1255  140.0910  169.4489 C.ar    1  UNL1       -0.0045
      8 C         140.2658  140.5790  170.2923 C.ar    1  UNL1       -0.0003
      9 C         141.6110  140.8139  169.6716 C.ar    1  UNL1       -0.0003
     10 C         141.8159  140.5607  168.2075 C.ar    1  UNL1       -0.0030
     11 C         140.6756  140.0726  167.3640 C.ar    1  UNL1       -0.0082
     12 C         140.8805  139.8194  165.8997 C.3     1  UNL1        0.0975
     13 C         142.2257  140.0542  165.2790 C.3     1  UNL1        0.0224
     14 C         142.5631  141.3990  164.7065 C.3     1  UNL1        0.0020
     15 C         143.9083  141.6339  164.0858 C.3     1  UNL1        0.0001
     16 C         144.9161  140.5239  164.0376 C.3     1  UNL1        0.0000
     17 C         144.5788  139.1792  164.6102 C.3     1  UNL1        0.0001
     18 C         143.2336  138.9443  165.2309 C.3     1  UNL1        0.0020
     19 C         138.8048  138.5900  162.7485 C.3     1  UNL1        0.1552
     20 N         137.7346  139.5447  162.3093 N.3     1  UNL1       -0.2879
     21 H         137.0524  139.5908  163.0663 H       1  UNL1        0.1238
     22 C         138.0892  140.9596  161.9592 C.3     1  UNL1        0.0961
     23 C         137.9749  142.0395  162.9940 C.3     1  UNL1        0.1027
     24 O         136.6716  141.3297  163.2131 O.3     1  UNL1       -0.3854
     25 C         139.3177  142.3741  162.4155 C.3     1  UNL1        0.0283
     26 C         140.0937  143.5422  162.9479 C.3     1  UNL1        0.0024
     27 C         139.5268  144.3756  164.0588 C.3     1  UNL1        0.0002
     28 C         138.1839  144.0410  164.6372 C.3     1  UNL1        0.0024
     29 C         137.4079  142.8729  164.1049 C.3     1  UNL1        0.0283
     30 H         136.6016  140.5845  162.5961 H       1  UNL1        0.2103
@<TRIPOS>BOND
     1     1     2    2
     2     2    19    1
     3    19    20    1
     4    20    22    1
     5    22    23    1
     6    23    24    1
     7    23    25    1
     8    25    26    1
     9    26    27    1
    10    27    28    1
    11    28    29    1
    12     2     3   am
    13     3     4    1
    14     4     5    1
    15     5     6    1
    16     6     7   ar
    17     7     8   ar
    18     8     9   ar
    19     9    10   ar
    20    10    11   ar
    21    11    12    1
    22    12    13    1
    23    13    14    1
    24    14    15    1
    25    15    16    1
    26    16    17    1
    27    17    18    1
    28    29    23    1
    29    12     3    1
    30    18    13    1
    31    11     6   ar
    32    20    21    1
    33    24    30    1
@<TRIPOS>MOLECULE
*****
 30 33 0 0 0
SMALL
GASTEIGER

@<TRIPOS>ATOM
      1 O         139.9874  141.1670  162.9143 O.2     1  UNL1       -0.2734
      2 C         139.3322  140.0954  163.7343 C.2     1  UNL1        0.2420
      3 N         139.3337  140.1903  165.2313 N.am    1  UNL1       -0.2760
      4 C         138.6785  139.1186  166.0513 C.3     1  UNL1        0.0983
      5 C         138.6799  139.2134  167.5483 C.3     1  UNL1        0.0476
      6 C         139.3365  140.3799  168.2253 C.ar    1  UNL1       -0.0229
      7 C         139.3379  140.4747  169.7223 C.ar    1  UNL1       -0.0045
      8 C         139.9945  141.6411  170.3993 C.ar    1  UNL1       -0.0003
      9 C         140.6497  142.7127  169.5793 C.ar    1  UNL1       -0.0003
     10 C         140.6483  142.6179  168.0823 C.ar    1  UNL1       -0.0030
     11 C         139.9917  141.4515  167.4053 C.ar    1  UNL1       -0.0082
     12 C         139.9903  141.3566  165.9083 C.3     1  UNL1        0.0975
     13 C         140.6455  142.4283  165.0883 C.3     1  UNL1        0.0224
     14 C         139.8625  143.6380  164.6717 C.3     1  UNL1        0.0020
     15 C         140.5177  144.7096  163.8517 C.3     1  UNL1        0.0001
     16 C         141.9558  144.5715  163.4483 C.3     1  UNL1        0.0000
     17 C         142.7387  143.3617  163.8649 C.3     1  UNL1        0.0001
     18 C         142.0835  142.2901  164.6849 C.3     1  UNL1        0.0020
     19 C         138.6756  138.9290  163.0573 C.3     1  UNL1        0.1552
     20 N         139.5014  137.7596  162.6095 N.3     1  UNL1       -0.2879
     21 H         139.8478  137.9838  161.6766 H       1  UNL1        0.1238
     22 C         140.6873  137.3250  163.4188 C.3     1  UNL1        0.0961
     23 C         142.0045  138.0231  163.2537 C.3     1  UNL1        0.1027
     24 O         141.6369  137.8168  161.8141 O.3     1  UNL1       -0.3854
     25 C         141.9147  137.9871  164.7505 C.3     1  UNL1        0.0283
     26 C         143.0145  138.5774  165.5824 C.3     1  UNL1        0.0024
     27 C         144.2041  139.2039  164.9173 C.3     1  UNL1        0.0002
     28 C         144.2940  139.2400  163.4204 C.3     1  UNL1        0.0024
     29 C         143.1942  138.6496  162.5886 C.3     1  UNL1        0.0283
     30 H         140.7816  137.3622  161.7608 H       1  UNL1        0.2103
@<TRIPOS>BOND
     1     1     2    2
     2     2    19    1
     3    19    20    1
     4    20    22    1
     5    22    23    1
     6    23    24    1
     7    23    25    1
     8    25    26    1
     9    26    27    1
    10    27    28    1
    11    28    29    1
    12     2     3   am
    13     3     4    1
    14     4     5    1
    15     5     6    1
    16     6     7   ar
    17     7     8   ar
    18     8     9   ar
    19     9    10   ar
    20    10    11   ar
    21    11    12    1
    22    12    13    1
    23    13    14    1
    24    14    15    1
    25    15    16    1
    26    16    17    1
    27    17    18    1
    28    29    23    1
    29    12     3    1
    30    18    13    1
    31    11     6   ar
    32    20    21    1
    33    24    30    1
@<TRIPOS>MOLECULE
*****
 30 33 0 0 0
SMALL
GASTEIGER

@<TRIPOS>ATOM
      1 O         141.1475  141.3333  162.8769 O.2     1  UNL1       -0.2734
      2 C         142.1295  140.3215  163.3887 C.2     1  UNL1        0.2420
      3 N         142.2112  140.0325  164.8584 N.am    1  UNL1       -0.2760
      4 C         143.1932  139.0207  165.3703 C.3     1  UNL1        0.0983
      5 C         143.2750  138.7317  166.8398 C.3     1  UNL1        0.0476
      6 C         142.3748  139.4544  167.7977 C.ar    1  UNL1       -0.0229
      7 C         142.4566  139.1654  169.2672 C.ar    1  UNL1       -0.0045
      8 C         141.5564  139.8881  170.2250 C.ar    1  UNL1       -0.0003
      9 C         140.5744  140.8999  169.7131 C.ar    1  UNL1       -0.0003
     10 C         140.4926  141.1889  168.2435 C.ar    1  UNL1       -0.0030
     11 C         141.3928  140.4662  167.2858 C.ar    1  UNL1       -0.0082
     12 C         141.3110  140.7552  165.8161 C.3     1  UNL1        0.0975
     13 C         140.3290  141.7670  165.3043 C.3     1  UNL1        0.0224
     14 C         138.9413  141.3409  164.9266 C.3     1  UNL1        0.0020
     15 C         137.9593  142.3526  164.4147 C.3     1  UNL1        0.0001
     16 C         138.3651  143.7905  164.2805 C.3     1  UNL1        0.0000
     17 C         139.7528  144.2165  164.6582 C.3     1  UNL1        0.0001
     18 C         140.7348  143.2048  165.1700 C.3     1  UNL1        0.0020
     19 C         143.0296  139.5988  162.4310 C.3     1  UNL1        0.1552
     20 N         144.4820  139.9641  162.3458 N.3     1  UNL1       -0.2879
     21 H         144.8606  139.4783  161.5327 H       1  UNL1        0.1238
     22 C         144.8872  141.4027  162.2183 C.3     1  UNL1        0.0961
     23 C         144.7916  142.3167  163.4038 C.3     1  UNL1        0.1027
     24 O         145.5176  141.1602  164.0246 O.3     1  UNL1       -0.3854
     25 C         144.0988  143.1558  162.3714 C.3     1  UNL1        0.0283
     26 C         143.5625  144.5073  162.7399 C.3     1  UNL1        0.0024
     27 C         143.7190  145.0197  164.1410 C.3     1  UNL1        0.0002
     28 C         144.4118  144.1806  165.1735 C.3     1  UNL1        0.0024
     29 C         144.9481  142.8291  164.8049 C.3     1  UNL1        0.0283
     30 H         145.6553  140.4693  163.3577 H       1  UNL1        0.2103
@<TRIPOS>BOND
     1     1     2    2
     2     2    19    1
     3    19    20    1
     4    20    22    1
     5    22    23    1
     6    23    24    1
     7    23    25    1
     8    25    26    1
     9    26    27    1
    10    27    28    1
    11    28    29    1
    12     2     3   am
    13     3     4    1
    14     4     5    1
    15     5     6    1
    16     6     7   ar
    17     7     8   ar
    18     8     9   ar
    19     9    10   ar
    20    10    11   ar
    21    11    12    1
    22    12    13    1
    23    13    14    1
    24    14    15    1
    25    15    16    1
    26    16    17    1
    27    17    18    1
    28    29    23    1
    29    12     3    1
    30    18    13    1
    31    11     6   ar
    32    20    21    1
    33    24    30    1
@<TRIPOS>MOLECULE
*****
 30 33 0 0 0
SMALL
GASTEIGER

@<TRIPOS>ATOM
      1 O         141.8037  141.2328  163.2160 O.2     1  UNL1       -0.2734
      2 C         140.9138  140.2150  163.8658 C.2     1  UNL1        0.2420
      3 N         140.5209  140.3719  165.3050 N.am    1  UNL1       -0.2760
      4 C         139.6310  139.3541  165.9547 C.3     1  UNL1        0.0983
      5 C         139.2381  139.5110  167.3938 C.3     1  UNL1        0.0476
      6 C         139.7352  140.6857  168.1832 C.ar    1  UNL1       -0.0229
      7 C         139.3423  140.8425  169.6223 C.ar    1  UNL1       -0.0045
      8 C         139.8394  142.0171  170.4116 C.ar    1  UNL1       -0.0003
      9 C         140.7293  143.0349  169.7619 C.ar    1  UNL1       -0.0003
     10 C         141.1222  142.8781  168.3228 C.ar    1  UNL1       -0.0030
     11 C         140.6251  141.7034  167.5335 C.ar    1  UNL1       -0.0082
     12 C         141.0180  141.5465  166.0943 C.3     1  UNL1        0.0975
     13 C         141.9079  142.5643  165.4446 C.3     1  UNL1        0.0224
     14 C         141.3072  143.7112  164.6870 C.3     1  UNL1        0.0020
     15 C         142.1971  144.7290  164.0372 C.3     1  UNL1        0.0001
     16 C         143.6877  144.5999  164.1451 C.3     1  UNL1        0.0000
     17 C         144.2883  143.4530  164.9027 C.3     1  UNL1        0.0001
     18 C         143.3984  142.4352  165.5524 C.3     1  UNL1        0.0020
     19 C         140.4167  139.0404  163.0764 C.3     1  UNL1        0.1552
     20 N         139.3045  139.2189  162.0860 N.3     1  UNL1       -0.2879
     21 H         138.9416  138.2882  161.8797 H       1  UNL1        0.1238
     22 C         138.1237  140.0774  162.4308 C.3     1  UNL1        0.0961
     23 C         138.2105  141.5674  162.2812 C.3     1  UNL1        0.1027
     24 O         138.6129  141.1430  160.8999 O.3     1  UNL1       -0.3854
     25 C         137.7779  141.4743  163.7144 C.3     1  UNL1        0.0283
     26 C         137.5718  142.7237  164.5184 C.3     1  UNL1        0.0024
     27 C         137.7984  144.0664  163.8890 C.3     1  UNL1        0.0002
     28 C         138.2310  144.1595  162.4558 C.3     1  UNL1        0.0024
     29 C         138.4370  142.9100  161.6519 C.3     1  UNL1        0.0283
     30 H         138.6027  140.1747  160.8433 H       1  UNL1        0.2103
@<TRIPOS>BOND
     1     1     2    2
     2     2    19    1
     3    19    20    1
     4    20    22    1
     5    22    23    1
     6    23    24    1
     7    23    25    1
     8    25    26    1
     9    26    27    1
    10    27    28    1
    11    28    29    1
    12     2     3   am
    13     3     4    1
    14     4     5    1
    15     5     6    1
    16     6     7   ar
    17     7     8   ar
    18     8     9   ar
    19     9    10   ar
    20    10    11   ar
    21    11    12    1
    22    12    13    1
    23    13    14    1
    24    14    15    1
    25    15    16    1
    26    16    17    1
    27    17    18    1
    28    29    23    1
    29    12     3    1
    30    18    13    1
    31    11     6   ar
    32    20    21    1
    33    24    30    1
@<TRIPOS>MOLECULE
*****
 30 33 0 0 0
SMALL
GASTEIGER

@<TRIPOS>ATOM
      1 O         142.1467  140.5216  163.3312 O.2     1  UNL1       -0.2734
      2 C         142.9546  141.3430  164.2917 C.2     1  UNL1        0.2420
      3 N         142.5244  141.4611  165.7239 N.am    1  UNL1       -0.2760
      4 C         143.3324  142.2824  166.6844 C.3     1  UNL1        0.0983
      5 C         142.9023  142.4005  168.1165 C.3     1  UNL1        0.0476
      6 C         141.6641  141.6973  168.5882 C.ar    1  UNL1       -0.0229
      7 C         141.2340  141.8154  170.0203 C.ar    1  UNL1       -0.0045
      8 C         139.9959  141.1122  170.4919 C.ar    1  UNL1       -0.0003
      9 C         139.1879  140.2908  169.5314 C.ar    1  UNL1       -0.0003
     10 C         139.6180  140.1727  168.0993 C.ar    1  UNL1       -0.0030
     11 C         140.8561  140.8760  167.6277 C.ar    1  UNL1       -0.0082
     12 C         141.2863  140.7579  166.1955 C.3     1  UNL1        0.0975
     13 C         140.4783  139.9365  165.2350 C.3     1  UNL1        0.0224
     14 C         139.3584  140.5701  164.4640 C.3     1  UNL1        0.0020
     15 C         138.5504  139.7488  163.5035 C.3     1  UNL1        0.0001
     16 C         138.8623  138.2938  163.3141 C.3     1  UNL1        0.0000
     17 C         139.9822  137.6603  164.0850 C.3     1  UNL1        0.0001
     18 C         140.7902  138.4816  165.0455 C.3     1  UNL1        0.0020
     19 C         144.1928  142.0462  163.8201 C.3     1  UNL1        0.1552
     20 N         144.0841  143.3711  163.1253 N.3     1  UNL1       -0.2879
     21 H         143.7900  143.1782  162.1678 H       1  UNL1        0.1238
     22 C         143.1586  144.4242  163.6587 C.3     1  UNL1        0.0961
     23 C         141.8751  144.7266  162.9439 C.3     1  UNL1        0.1027
     24 O         142.8542  144.9610  161.8318 O.3     1  UNL1       -0.3854
     25 C         141.3419  144.3873  164.3041 C.3     1  UNL1        0.0283
     26 C         139.8652  144.4318  164.5634 C.3     1  UNL1        0.0024
     27 C         138.9216  144.8156  163.4623 C.3     1  UNL1        0.0002
     28 C         139.4549  145.1550  162.1020 C.3     1  UNL1        0.0024
     29 C         140.9316  145.1105  161.8427 C.3     1  UNL1        0.0283
     30 H         143.7546  144.7990  162.1542 H       1  UNL1        0.2103
@<TRIPOS>BOND
     1     1     2    2
     2     2    19    1
     3    19    20    1
     4    20    22    1
     5    22    23    1
     6    23    24    1
     7    23    25    1
     8    25    26    1
     9    26    27    1
    10    27    28    1
    11    28    29    1
    12     2     3   am
    13     3     4    1
    14     4     5    1
    15     5     6    1
    16     6     7   ar
    17     7     8   ar
    18     8     9   ar
    19     9    10   ar
    20    10    11   ar
    21    11    12    1
    22    12    13    1
    23    13    14    1
    24    14    15    1
    25    15    16    1
    26    16    17    1
    27    17    18    1
    28    29    23    1
    29    12     3    1
    30    18    13    1
    31    11     6   ar
    32    20    21    1
    33    24    30    1
@<TRIPOS>MOLECULE
*****
 30 33 0 0 0
SMALL
GASTEIGER

@<TRIPOS>ATOM
      1 O         140.1252  142.7955  161.9406 O.2     1  UNL1       -0.2734
      2 C         140.3047  141.3666  161.5212 C.2     1  UNL1        0.2420
      3 N         139.8673  140.2572  162.4313 N.am    1  UNL1       -0.2760
      4 C         140.0468  138.8283  162.0120 C.3     1  UNL1        0.0983
      5 C         139.6095  137.7190  162.9220 C.3     1  UNL1        0.0476
      6 C         138.9927  138.0387  164.2515 C.ar    1  UNL1       -0.0229
      7 C         138.5554  136.9294  165.1615 C.ar    1  UNL1       -0.0045
      8 C         137.9386  137.2491  166.4909 C.ar    1  UNL1       -0.0003
      9 C         137.7591  138.6780  166.9103 C.ar    1  UNL1       -0.0003
     10 C         138.1964  139.7873  166.0003 C.ar    1  UNL1       -0.0030
     11 C         138.8132  139.4676  164.6709 C.ar    1  UNL1       -0.0082
     12 C         139.2506  140.5769  163.7607 C.3     1  UNL1        0.0975
     13 C         139.0711  142.0059  164.1801 C.3     1  UNL1        0.0224
     14 C         137.7943  142.7262  163.8620 C.3     1  UNL1        0.0020
     15 C         137.6148  144.1551  164.2814 C.3     1  UNL1        0.0001
     16 C         138.7122  144.8638  165.0188 C.3     1  UNL1        0.0000
     17 C         139.9888  144.1435  165.3369 C.3     1  UNL1        0.0001
     18 C         140.1683  142.7146  164.9175 C.3     1  UNL1        0.0020
     19 C         140.9215  141.0469  160.1918 C.3     1  UNL1        0.1552
     20 N         142.3593  141.3854  159.9313 N.3     1  UNL1       -0.2879
     21 H         142.5155  142.3190  160.3115 H       1  UNL1        0.1238
     22 C         143.4471  140.5082  160.4767 C.3     1  UNL1        0.0961
     23 C         144.3030  140.9914  161.6097 C.3     1  UNL1        0.1027
     24 O         144.4565  142.1412  160.6586 O.3     1  UNL1       -0.3854
     25 C         143.8523  139.6739  162.1672 C.3     1  UNL1        0.0283
     26 C         144.3107  139.2388  163.5276 C.3     1  UNL1        0.0024
     27 C         145.2200  140.1214  164.3304 C.3     1  UNL1        0.0002
     28 C         145.6707  141.4389  163.7729 C.3     1  UNL1        0.0024
     29 C         145.2122  141.8740  162.4125 C.3     1  UNL1        0.0283
     30 H         143.9432  141.9663  159.8544 H       1  UNL1        0.2103
@<TRIPOS>BOND
     1     1     2    2
     2     2    19    1
     3    19    20    1
     4    20    22    1
     5    22    23    1
     6    23    24    1
     7    23    25    1
     8    25    26    1
     9    26    27    1
    10    27    28    1
    11    28    29    1
    12     2     3   am
    13     3     4    1
    14     4     5    1
    15     5     6    1
    16     6     7   ar
    17     7     8   ar
    18     8     9   ar
    19     9    10   ar
    20    10    11   ar
    21    11    12    1
    22    12    13    1
    23    13    14    1
    24    14    15    1
    25    15    16    1
    26    16    17    1
    27    17    18    1
    28    29    23    1
    29    12     3    1
    30    18    13    1
    31    11     6   ar
    32    20    21    1
    33    24    30    1
@<TRIPOS>MOLECULE
*****
 30 33 0 0 0
SMALL
GASTEIGER

@<TRIPOS>ATOM
      1 O         141.2017  141.1951  163.2858 O.2     1  UNL1       -0.2734
      2 C         142.1678  140.2827  163.9816 C.2     1  UNL1        0.2420
      3 N         142.0787  140.0876  165.4663 N.am    1  UNL1       -0.2760
      4 C         143.0448  139.1752  166.1621 C.3     1  UNL1        0.0983
      5 C         142.9557  138.9801  167.6467 C.3     1  UNL1        0.0476
      6 C         141.9005  139.6973  168.4355 C.ar    1  UNL1       -0.0229
      7 C         141.8114  139.5022  169.9200 C.ar    1  UNL1       -0.0045
      8 C         140.7562  140.2195  170.7087 C.ar    1  UNL1       -0.0003
      9 C         139.7902  141.1319  170.0129 C.ar    1  UNL1       -0.0003
     10 C         139.8792  141.3270  168.5283 C.ar    1  UNL1       -0.0030
     11 C         140.9344  140.6097  167.7396 C.ar    1  UNL1       -0.0082
     12 C         141.0235  140.8049  166.2550 C.3     1  UNL1        0.0975
     13 C         140.0574  141.7173  165.5592 C.3     1  UNL1        0.0224
     14 C         140.3721  143.1773  165.4201 C.3     1  UNL1        0.0020
     15 C         139.4060  144.0897  164.7242 C.3     1  UNL1        0.0001
     16 C         138.1253  143.5421  164.1675 C.3     1  UNL1        0.0000
     17 C         137.8107  142.0821  164.3066 C.3     1  UNL1        0.0001
     18 C         138.7768  141.1697  165.0024 C.3     1  UNL1        0.0020
     19 C         143.2230  139.5655  163.1929 C.3     1  UNL1        0.1552
     20 N         142.9513  139.1557  161.7758 N.3     1  UNL1       -0.2879
     21 H         143.8566  138.9697  161.3444 H       1  UNL1        0.1238
     22 C         142.0838  137.9651  161.4925 C.3     1  UNL1        0.0961
     23 C         140.6329  137.9869  161.8723 C.3     1  UNL1        0.1027
     24 O         141.1314  136.9268  162.8092 O.3     1  UNL1       -0.3854
     25 C         140.6383  139.0394  160.8036 C.3     1  UNL1        0.0283
     26 C         139.3659  139.7456  160.4400 C.3     1  UNL1        0.0024
     27 C         138.0880  139.3993  161.1452 C.3     1  UNL1        0.0002
     28 C         138.0826  138.3468  162.2139 C.3     1  UNL1        0.0024
     29 C         139.3550  137.6406  162.5775 C.3     1  UNL1        0.0283
     30 H         142.0836  136.7987  162.6753 H       1  UNL1        0.2103
@<TRIPOS>BOND
     1     1     2    2
     2     2    19    1
     3    19    20    1
     4    20    22    1
     5    22    23    1
     6    23    24    1
     7    23    25    1
     8    25    26    1
     9    26    27    1
    10    27    28    1
    11    28    29    1
    12     2     3   am
    13     3     4    1
    14     4     5    1
    15     5     6    1
    16     6     7   ar
    17     7     8   ar
    18     8     9   ar
    19     9    10   ar
    20    10    11   ar
    21    11    12    1
    22    12    13    1
    23    13    14    1
    24    14    15    1
    25    15    16    1
    26    16    17    1
    27    17    18    1
    28    29    23    1
    29    12     3    1
    30    18    13    1
    31    11     6   ar
    32    20    21    1
    33    24    30    1
@<TRIPOS>MOLECULE
*****
 30 33 0 0 0
SMALL
GASTEIGER

@<TRIPOS>ATOM
      1 O         138.6396  141.2004  161.8326 O.2     1  UNL1       -0.2734
      2 C         138.5608  139.9723  162.6902 C.2     1  UNL1        0.2420
      3 N         138.9035  140.0525  164.1483 N.am    1  UNL1       -0.2760
      4 C         138.8247  138.8244  165.0059 C.3     1  UNL1        0.0983
      5 C         139.1674  138.9046  166.4640 C.3     1  UNL1        0.0476
      6 C         139.5889  140.2129  167.0646 C.ar    1  UNL1       -0.0229
      7 C         139.9316  140.2931  168.5227 C.ar    1  UNL1       -0.0045
      8 C         140.3531  141.6014  169.1232 C.ar    1  UNL1       -0.0003
      9 C         140.4319  142.8295  168.2656 C.ar    1  UNL1       -0.0003
     10 C         140.0892  142.7493  166.8075 C.ar    1  UNL1       -0.0030
     11 C         139.6677  141.4410  166.2070 C.ar    1  UNL1       -0.0082
     12 C         139.3250  141.3608  164.7488 C.3     1  UNL1        0.0975
     13 C         139.4038  142.5890  163.8912 C.3     1  UNL1        0.0224
     14 C         140.6892  142.9420  163.2032 C.3     1  UNL1        0.0020
     15 C         140.7680  144.1702  162.3456 C.3     1  UNL1        0.0001
     16 C         139.5615  145.0452  162.1760 C.3     1  UNL1        0.0000
     17 C         138.2762  144.6921  162.8641 C.3     1  UNL1        0.0001
     18 C         138.1974  143.4640  163.7217 C.3     1  UNL1        0.0020
     19 C         138.1393  138.6640  162.0897 C.3     1  UNL1        0.1552
     20 N         139.1741  137.6551  161.6882 N.3     1  UNL1       -0.2879
     21 H         138.8385  137.2139  160.8320 H       1  UNL1        0.1238
     22 C         140.5852  138.0915  161.4261 C.3     1  UNL1        0.0961
     23 C         141.5565  138.2114  162.5627 C.3     1  UNL1        0.1027
     24 O         140.9167  136.8983  162.9042 O.3     1  UNL1       -0.3854
     25 C         141.8590  139.4827  161.8264 C.3     1  UNL1        0.0283
     26 C         142.9106  140.4180  162.3454 C.3     1  UNL1        0.0024
     27 C         143.6598  140.0819  163.6007 C.3     1  UNL1        0.0002
     28 C         143.3574  138.8105  164.3370 C.3     1  UNL1        0.0024
     29 C         142.3058  137.8753  163.8180 C.3     1  UNL1        0.0283
     30 H         140.2462  136.6823  162.2375 H       1  UNL1        0.2103
@<TRIPOS>BOND
     1     1     2    2
     2     2    19    1
     3    19    20    1
     4    20    22    1
     5    22    23    1
     6    23    24    1
     7    23    25    1
     8    25    26    1
     9    26    27    1
    10    27    28    1
    11    28    29    1
    12     2     3   am
    13     3     4    1
    14     4     5    1
    15     5     6    1
    16     6     7   ar
    17     7     8   ar
    18     8     9   ar
    19     9    10   ar
    20    10    11   ar
    21    11    12    1
    22    12    13    1
    23    13    14    1
    24    14    15    1
    25    15    16    1
    26    16    17    1
    27    17    18    1
    28    29    23    1
    29    12     3    1
    30    18    13    1
    31    11     6   ar
    32    20    21    1
    33    24    30    1
