@<TRIPOS>MOLECULE
*****
 31 33 0 0 0
SMALL
GASTEIGER

@<TRIPOS>ATOM
      1 C         142.6372  141.6845  167.5313 C.ar    1  UNL1        0.1300
      2 N         143.5128  142.4948  168.4405 N.ar    1  UNL1       -0.1995
      3 C         143.1067  142.7220  169.8665 C.ar    1  UNL1        0.2145
      4 N         143.9824  143.5323  170.7757 N.pl3   1  UNL1       -0.3274
      5 N         141.8250  142.1389  170.3833 N.ar    1  UNL1       -0.2185
      6 C         140.9492  141.3286  169.4741 C.ar    1  UNL1        0.0639
      7 C         141.3553  141.1014  168.0481 C.ar    1  UNL1        0.0429
      8 C         140.4797  140.2911  167.1390 C.3     1  UNL1        0.1244
      9 N         139.1980  139.7080  167.6558 N.am    1  UNL1       -0.2710
     10 C         138.3223  138.8976  166.7466 C.2     1  UNL1        0.2553
     11 O         137.0405  138.3146  167.2635 O.2     1  UNL1       -0.2693
     12 C         138.7919  139.9352  169.0818 C.3     1  UNL1        0.1003
     13 C         139.6675  140.7455  169.9910 C.3     1  UNL1        0.0672
     14 H         144.8237  143.9150  170.4365 H       1  UNL1        0.1452
     15 H         143.7159  143.6815  171.7116 H       1  UNL1        0.1452
     16 C         138.7283  138.6704  165.3206 C.ar    1  UNL1        0.0830
     17 C         139.5052  137.4970  164.8014 C.ar    1  UNL1        0.0116
     18 C         139.6859  137.6781  163.3234 C.ar    1  UNL1        0.0076
     19 C         139.0207  138.9634  162.9291 C.ar    1  UNL1        0.0356
     20 S         138.4289  139.5767  164.1635 S.2     1  UNL1       -0.0819
     21 N         143.0432  141.4572  166.1053 N.pl3   1  UNL1       -0.3197
     22 H         143.1215  140.5401  165.7560 H       1  UNL1        0.1481
     23 C         143.3301  142.6272  165.2117 C.3     1  UNL1        0.0728
     24 C         142.2175  143.5425  164.7940 C.3     1  UNL1        0.0196
     25 C         140.8172  143.0170  164.6789 C.3     1  UNL1        0.0017
     26 C         138.9779  144.7650  165.2368 C.3     1  UNL1        0.0000
     27 C         139.7466  143.5282  165.5967 C.3     1  UNL1        0.0001
     28 C         144.7296  142.8821  164.7356 C.3     1  UNL1        0.0512
     29 C         145.4893  141.8003  164.0267 C.3     1  UNL1        0.1389
     30 O         145.9473  142.0082  162.6136 O.3     1  UNL1       -0.3819
     31 H         145.1754  142.0738  162.0298 H       1  UNL1        0.2104
@<TRIPOS>BOND
     1    26    27    1
     2    27    25    1
     3    25    24    1
     4    23    24    1
     5    23    28    1
     6    28    29    1
     7    29    30    1
     8    23    21    1
     9    21     1    1
    10     1     2   ar
    11     2     3   ar
    12     3     4    1
    13     3     5   ar
    14     5     6   ar
    15     6     7   ar
    16     7     8    1
    17     8     9    1
    18     9    10   am
    19    10    11    2
    20    10    16    1
    21    16    17   ar
    22    17    18   ar
    23    18    19   ar
    24    19    20   ar
    25     9    12    1
    26    12    13    1
    27     7     1   ar
    28    20    16   ar
    29    13     6    1
    30    30    31    1
    31    21    22    1
    32     4    14    1
    33     4    15    1
@<TRIPOS>MOLECULE
*****
 31 33 0 0 0
SMALL
GASTEIGER

@<TRIPOS>ATOM
      1 C         140.2572  139.9805  166.4380 C.ar    1  UNL1        0.1300
      2 N         139.0470  139.6415  167.2568 N.ar    1  UNL1       -0.1995
      3 C         138.1789  138.4817  166.8676 C.ar    1  UNL1        0.2145
      4 N         136.9686  138.1428  167.6864 N.pl3   1  UNL1       -0.3274
      5 N         138.5212  137.6609  165.6597 N.ar    1  UNL1       -0.2185
      6 C         139.7315  137.9998  164.8409 C.ar    1  UNL1        0.0639
      7 C         140.5995  139.1596  165.2300 C.ar    1  UNL1        0.0429
      8 C         141.8097  139.4986  164.4113 C.3     1  UNL1        0.1244
      9 N         142.1519  138.6777  163.2034 N.am    1  UNL1       -0.2710
     10 C         143.3622  139.0167  162.3846 C.2     1  UNL1        0.2553
     11 O         143.7045  138.1958  161.1767 O.2     1  UNL1       -0.2693
     12 C         141.2839  137.5179  162.8142 C.3     1  UNL1        0.1003
     13 C         140.0737  137.1790  163.6330 C.3     1  UNL1        0.0672
     14 H         136.7440  138.6816  168.4792 H       1  UNL1        0.1452
     15 H         136.3989  137.3816  167.4310 H       1  UNL1        0.1452
     16 C         144.2303  140.1764  162.7737 C.ar    1  UNL1        0.0830
     17 C         145.1911  140.2113  163.9251 C.ar    1  UNL1        0.0116
     18 C         145.8445  141.5614  163.9428 C.ar    1  UNL1        0.0076
     19 C         145.2876  142.3609  162.8024 C.ar    1  UNL1        0.0356
     20 S         144.2899  141.5050  162.0799 S.2     1  UNL1       -0.0819
     21 N         141.1252  141.1402  166.8272 N.pl3   1  UNL1       -0.3197
     22 H         140.9398  142.0370  166.4657 H       1  UNL1        0.1481
     23 C         142.2758  140.9337  167.7671 C.3     1  UNL1        0.0728
     24 C         143.1032  142.1045  168.2084 C.3     1  UNL1        0.0196
     25 C         142.9254  142.6721  169.5854 C.3     1  UNL1        0.0017
     26 C         140.5584  143.7387  169.6843 C.3     1  UNL1        0.0000
     27 C         141.5572  142.7436  170.1962 C.3     1  UNL1        0.0001
     28 C         142.5990  139.5564  168.2659 C.3     1  UNL1        0.0512
     29 C         142.2359  139.1617  169.6666 C.3     1  UNL1        0.1389
     30 O         143.2510  139.2760  170.7650 O.3     1  UNL1       -0.3819
     31 H         143.9748  138.6511  170.6027 H       1  UNL1        0.2104
@<TRIPOS>BOND
     1    26    27    1
     2    27    25    1
     3    25    24    1
     4    23    24    1
     5    23    28    1
     6    28    29    1
     7    29    30    1
     8    23    21    1
     9    21     1    1
    10     1     2   ar
    11     2     3   ar
    12     3     4    1
    13     3     5   ar
    14     5     6   ar
    15     6     7   ar
    16     7     8    1
    17     8     9    1
    18     9    10   am
    19    10    11    2
    20    10    16    1
    21    16    17   ar
    22    17    18   ar
    23    18    19   ar
    24    19    20   ar
    25     9    12    1
    26    12    13    1
    27     7     1   ar
    28    20    16   ar
    29    13     6    1
    30    30    31    1
    31    21    22    1
    32     4    14    1
    33     4    15    1
@<TRIPOS>MOLECULE
*****
 31 33 0 0 0
SMALL
GASTEIGER

@<TRIPOS>ATOM
      1 C         142.5204  141.7048  167.3844 C.ar    1  UNL1        0.1300
      2 N         143.4403  142.4918  168.2701 N.ar    1  UNL1       -0.1995
      3 C         143.1212  142.6552  169.7266 C.ar    1  UNL1        0.2145
      4 N         144.0411  143.4422  170.6123 N.pl3   1  UNL1       -0.3274
      5 N         141.8822  142.0315  170.2975 N.ar    1  UNL1       -0.2185
      6 C         140.9623  141.2444  169.4119 C.ar    1  UNL1        0.0639
      7 C         141.2814  141.0810  167.9553 C.ar    1  UNL1        0.0429
      8 C         140.3615  140.2940  167.0697 C.3     1  UNL1        0.1244
      9 N         139.1226  139.6703  167.6406 N.am    1  UNL1       -0.2710
     10 C         138.2027  138.8832  166.7550 C.2     1  UNL1        0.2553
     11 O         136.9637  138.2595  167.3259 O.2     1  UNL1       -0.2693
     12 C         138.8035  139.8336  169.0971 C.3     1  UNL1        0.1003
     13 C         139.7234  140.6207  169.9828 C.3     1  UNL1        0.0672
     14 H         144.8543  143.8516  170.2375 H       1  UNL1        0.1452
     15 H         143.8317  143.5495  171.5682 H       1  UNL1        0.1452
     16 C         138.5217  138.7199  165.2984 C.ar    1  UNL1        0.0830
     17 C         139.2502  137.5638  164.6796 C.ar    1  UNL1        0.0116
     18 C         139.3471  137.8134  163.2037 C.ar    1  UNL1        0.0076
     19 C         138.6785  139.1237  162.9103 C.ar    1  UNL1        0.0356
     20 S         138.1684  139.6839  164.2049 S.2     1  UNL1       -0.0819
     21 N         142.8395  141.5415  165.9279 N.pl3   1  UNL1       -0.3197
     22 H         142.6365  140.6930  165.4716 H       1  UNL1        0.1481
     23 C         143.4679  142.6708  165.1666 C.3     1  UNL1        0.0728
     24 C         144.9520  142.6949  164.9496 C.3     1  UNL1        0.0196
     25 C         145.5519  141.9620  163.7864 C.3     1  UNL1        0.0017
     26 C         145.1062  139.4526  164.2909 C.3     1  UNL1        0.0000
     27 C         144.9964  140.6321  163.3707 C.3     1  UNL1        0.0001
     28 C         142.6123  143.7760  164.6221 C.3     1  UNL1        0.0512
     29 C         141.1179  143.6802  164.7095 C.3     1  UNL1        0.1389
     30 O         140.4157  142.4475  164.2225 O.3     1  UNL1       -0.3819
     31 H         140.5275  142.3699  163.2620 H       1  UNL1        0.2104
@<TRIPOS>BOND
     1    26    27    1
     2    27    25    1
     3    25    24    1
     4    23    24    1
     5    23    28    1
     6    28    29    1
     7    29    30    1
     8    23    21    1
     9    21     1    1
    10     1     2   ar
    11     2     3   ar
    12     3     4    1
    13     3     5   ar
    14     5     6   ar
    15     6     7   ar
    16     7     8    1
    17     8     9    1
    18     9    10   am
    19    10    11    2
    20    10    16    1
    21    16    17   ar
    22    17    18   ar
    23    18    19   ar
    24    19    20   ar
    25     9    12    1
    26    12    13    1
    27     7     1   ar
    28    20    16   ar
    29    13     6    1
    30    30    31    1
    31    21    22    1
    32     4    14    1
    33     4    15    1
@<TRIPOS>MOLECULE
*****
 31 33 0 0 0
SMALL
GASTEIGER

@<TRIPOS>ATOM
      1 C         141.3674  140.0919  164.5666 C.ar    1  UNL1        0.1300
      2 N         141.3538  139.5450  163.1699 N.ar    1  UNL1       -0.1995
      3 C         140.2653  138.6054  162.7430 C.ar    1  UNL1        0.2145
      4 N         140.2518  138.0584  161.3463 N.pl3   1  UNL1       -0.3274
      5 N         139.1904  138.2127  163.7126 N.ar    1  UNL1       -0.2185
      6 C         139.2039  138.7597  165.1093 C.ar    1  UNL1        0.0639
      7 C         140.2924  139.6993  165.5363 C.ar    1  UNL1        0.0429
      8 C         140.3060  140.2462  166.9329 C.3     1  UNL1        0.1244
      9 N         139.2311  139.8536  167.9026 N.am    1  UNL1       -0.2710
     10 C         139.2446  140.4005  169.2993 C.2     1  UNL1        0.2553
     11 O         138.1696  140.0079  170.2690 O.2     1  UNL1       -0.2693
     12 C         138.1425  138.9140  167.4756 C.3     1  UNL1        0.1003
     13 C         138.1290  138.3670  166.0790 C.3     1  UNL1        0.0672
     14 H         140.9573  138.3161  160.7098 H       1  UNL1        0.1452
     15 H         139.5374  137.4417  161.0660 H       1  UNL1        0.1452
     16 C         140.3331  141.3401  169.7263 C.ar    1  UNL1        0.0830
     17 C         140.4072  142.8049  169.4116 C.ar    1  UNL1        0.0116
     18 C         141.6585  143.3500  170.0337 C.ar    1  UNL1        0.0076
     19 C         142.3578  142.2221  170.7329 C.ar    1  UNL1        0.0356
     20 S         141.5386  140.9800  170.5429 S.2     1  UNL1       -0.0819
     21 N         142.4559  141.0315  164.9935 N.pl3   1  UNL1       -0.3197
     22 H         143.0261  140.8067  165.7640 H       1  UNL1        0.1481
     23 C         142.6757  142.3136  164.2467 C.3     1  UNL1        0.0728
     24 C         141.5016  143.1458  163.8236 C.3     1  UNL1        0.0196
     25 C         140.7293  143.9274  164.8448 C.3     1  UNL1        0.0017
     26 C         138.4962  144.9848  165.6479 C.3     1  UNL1        0.0000
     27 C         139.2531  144.1314  164.6738 C.3     1  UNL1        0.0001
     28 C         144.0695  142.7637  163.9230 C.3     1  UNL1        0.0512
     29 C         145.2218  141.8191  164.0959 C.3     1  UNL1        0.1389
     30 O         146.3661  141.8467  163.1266 O.3     1  UNL1       -0.3819
     31 H         146.0557  141.5656  162.2517 H       1  UNL1        0.2104
@<TRIPOS>BOND
     1    26    27    1
     2    27    25    1
     3    25    24    1
     4    23    24    1
     5    23    28    1
     6    28    29    1
     7    29    30    1
     8    23    21    1
     9    21     1    1
    10     1     2   ar
    11     2     3   ar
    12     3     4    1
    13     3     5   ar
    14     5     6   ar
    15     6     7   ar
    16     7     8    1
    17     8     9    1
    18     9    10   am
    19    10    11    2
    20    10    16    1
    21    16    17   ar
    22    17    18   ar
    23    18    19   ar
    24    19    20   ar
    25     9    12    1
    26    12    13    1
    27     7     1   ar
    28    20    16   ar
    29    13     6    1
    30    30    31    1
    31    21    22    1
    32     4    14    1
    33     4    15    1
@<TRIPOS>MOLECULE
*****
 31 33 0 0 0
SMALL
GASTEIGER

@<TRIPOS>ATOM
      1 C         139.3349  139.9400  165.0340 C.ar    1  UNL1        0.1300
      2 N         138.2411  139.0965  165.6187 N.ar    1  UNL1       -0.1995
      3 C         138.1674  138.8865  167.1021 C.ar    1  UNL1        0.2145
      4 N         137.0735  138.0429  167.6868 N.pl3   1  UNL1       -0.3274
      5 N         139.1877  139.5200  168.0008 N.ar    1  UNL1       -0.2185
      6 C         140.2816  140.3635  167.4162 C.ar    1  UNL1        0.0639
      7 C         140.3553  140.5736  165.9328 C.ar    1  UNL1        0.0429
      8 C         141.4491  141.4171  165.3481 C.3     1  UNL1        0.1244
      9 N         142.4694  142.0505  166.2468 N.am    1  UNL1       -0.2710
     10 C         143.5633  142.8941  165.6621 C.2     1  UNL1        0.2553
     11 O         144.5836  143.5276  166.5609 O.2     1  UNL1       -0.2693
     12 C         142.3958  141.8405  167.7302 C.3     1  UNL1        0.1003
     13 C         141.3019  140.9970  168.3149 C.3     1  UNL1        0.0672
     14 H         136.4038  137.6272  167.0969 H       1  UNL1        0.1452
     15 H         137.0251  137.9051  168.6604 H       1  UNL1        0.1452
     16 C         143.6370  143.1041  164.1787 C.ar    1  UNL1        0.0830
     17 C         144.4813  142.3204  163.2181 C.ar    1  UNL1        0.0116
     18 C         144.2453  142.8666  161.8412 C.ar    1  UNL1        0.0076
     19 C         143.2552  143.9880  161.9508 C.ar    1  UNL1        0.0356
     20 S         142.8792  144.1348  163.3955 S.2     1  UNL1       -0.0819
     21 N         139.4085  140.1501  163.5506 N.pl3   1  UNL1       -0.3197
     22 H         140.2707  140.0633  163.0834 H       1  UNL1        0.1481
     23 C         138.1685  140.4923  162.7792 C.3     1  UNL1        0.0728
     24 C         137.3195  141.6547  163.2012 C.3     1  UNL1        0.0196
     25 C         137.9117  143.0313  163.2666 C.3     1  UNL1        0.0017
     26 C         139.1192  144.4085  165.1092 C.3     1  UNL1        0.0000
     27 C         137.8640  143.8082  164.5488 C.3     1  UNL1        0.0001
     28 C         137.7775  139.6722  161.5856 C.3     1  UNL1        0.0512
     29 C         137.7328  138.1762  161.6855 C.3     1  UNL1        0.1389
     30 O         138.5151  137.4723  162.7544 O.3     1  UNL1       -0.3819
     31 H         139.4639  137.5961  162.5952 H       1  UNL1        0.2104
@<TRIPOS>BOND
     1    26    27    1
     2    27    25    1
     3    25    24    1
     4    23    24    1
     5    23    28    1
     6    28    29    1
     7    29    30    1
     8    23    21    1
     9    21     1    1
    10     1     2   ar
    11     2     3   ar
    12     3     4    1
    13     3     5   ar
    14     5     6   ar
    15     6     7   ar
    16     7     8    1
    17     8     9    1
    18     9    10   am
    19    10    11    2
    20    10    16    1
    21    16    17   ar
    22    17    18   ar
    23    18    19   ar
    24    19    20   ar
    25     9    12    1
    26    12    13    1
    27     7     1   ar
    28    20    16   ar
    29    13     6    1
    30    30    31    1
    31    21    22    1
    32     4    14    1
    33     4    15    1
@<TRIPOS>MOLECULE
*****
 31 33 0 0 0
SMALL
GASTEIGER

@<TRIPOS>ATOM
      1 C         139.7906  140.3344  167.0563 C.ar    1  UNL1        0.1300
      2 N         138.9139  139.3917  167.8262 N.ar    1  UNL1       -0.1995
      3 C         137.8132  138.6506  167.1267 C.ar    1  UNL1        0.2145
      4 N         136.9365  137.7079  167.8967 N.pl3   1  UNL1       -0.3274
      5 N         137.5893  138.8521  165.6573 N.ar    1  UNL1       -0.2185
      6 C         138.4660  139.7948  164.8873 C.ar    1  UNL1        0.0639
      7 C         139.5666  140.5359  165.5868 C.ar    1  UNL1        0.0429
      8 C         140.4434  141.4786  164.8170 C.3     1  UNL1        0.1244
      9 N         140.2194  141.6801  163.3476 N.am    1  UNL1       -0.2710
     10 C         141.0961  142.6228  162.5776 C.2     1  UNL1        0.2553
     11 O         140.8722  142.8243  161.1082 O.2     1  UNL1       -0.2693
     12 C         139.1187  140.9390  162.6480 C.3     1  UNL1        0.1003
     13 C         138.2420  139.9963  163.4179 C.3     1  UNL1        0.0672
     14 H         137.0835  137.5757  168.8611 H       1  UNL1        0.1452
     15 H         136.2141  137.2215  167.4376 H       1  UNL1        0.1452
     16 C         142.1968  143.3639  163.2771 C.ar    1  UNL1        0.0830
     17 C         143.4048  142.7485  163.9190 C.ar    1  UNL1        0.0116
     18 C         144.2373  143.8548  164.4961 C.ar    1  UNL1        0.0076
     19 C         143.5438  145.1539  164.2109 C.ar    1  UNL1        0.0356
     20 S         142.2827  144.8505  163.4575 S.2     1  UNL1       -0.0819
     21 N         140.8912  141.0755  167.7558 N.pl3   1  UNL1       -0.3197
     22 H         140.7324  141.9849  168.0977 H       1  UNL1        0.1481
     23 C         142.2338  140.4309  167.9344 C.3     1  UNL1        0.0728
     24 C         143.0545  140.0624  166.7342 C.3     1  UNL1        0.0196
     25 C         143.0500  138.6506  166.2272 C.3     1  UNL1        0.0017
     26 C         141.3525  137.4272  164.6872 C.3     1  UNL1        0.0000
     27 C         142.5245  138.3481  164.8552 C.3     1  UNL1        0.0001
     28 C         142.7558  140.1548  169.3134 C.3     1  UNL1        0.0512
     29 C         142.0433  139.1805  170.2039 C.3     1  UNL1        0.1389
     30 O         140.5860  139.3675  170.5057 O.3     1  UNL1       -0.3819
     31 H         140.4645  140.1790  171.0230 H       1  UNL1        0.2104
@<TRIPOS>BOND
     1    26    27    1
     2    27    25    1
     3    25    24    1
     4    23    24    1
     5    23    28    1
     6    28    29    1
     7    29    30    1
     8    23    21    1
     9    21     1    1
    10     1     2   ar
    11     2     3   ar
    12     3     4    1
    13     3     5   ar
    14     5     6   ar
    15     6     7   ar
    16     7     8    1
    17     8     9    1
    18     9    10   am
    19    10    11    2
    20    10    16    1
    21    16    17   ar
    22    17    18   ar
    23    18    19   ar
    24    19    20   ar
    25     9    12    1
    26    12    13    1
    27     7     1   ar
    28    20    16   ar
    29    13     6    1
    30    30    31    1
    31    21    22    1
    32     4    14    1
    33     4    15    1
@<TRIPOS>MOLECULE
*****
 31 33 0 0 0
SMALL
GASTEIGER

@<TRIPOS>ATOM
      1 C         140.0413  139.6869  166.6649 C.ar    1  UNL1        0.1300
      2 N         138.8855  139.1929  167.4835 N.ar    1  UNL1       -0.1995
      3 C         137.9584  138.1555  166.9229 C.ar    1  UNL1        0.2145
      4 N         136.8026  137.6616  167.7416 N.pl3   1  UNL1       -0.3274
      5 N         138.1871  137.6121  165.5437 N.ar    1  UNL1       -0.2185
      6 C         139.3428  138.1060  164.7250 C.ar    1  UNL1        0.0639
      7 C         140.2700  139.1434  165.2855 C.ar    1  UNL1        0.0429
      8 C         141.4257  139.6374  164.4669 C.3     1  UNL1        0.1244
      9 N         141.6543  139.0939  163.0877 N.am    1  UNL1       -0.2710
     10 C         142.8101  139.5879  162.2689 C.2     1  UNL1        0.2553
     11 O         143.0388  139.0444  160.8897 O.2     1  UNL1       -0.2693
     12 C         140.7272  138.0565  162.5271 C.3     1  UNL1        0.1003
     13 C         139.5715  137.5626  163.3457 C.3     1  UNL1        0.0672
     14 H         136.6526  138.0183  168.6469 H       1  UNL1        0.1452
     15 H         136.1941  136.9807  167.3737 H       1  UNL1        0.1452
     16 C         143.7372  140.6253  162.8295 C.ar    1  UNL1        0.0830
     17 C         143.5689  142.1115  162.7168 C.ar    1  UNL1        0.0116
     18 C         144.7231  142.7634  163.4188 C.ar    1  UNL1        0.0076
     19 C         145.6048  141.6800  163.9656 C.ar    1  UNL1        0.0356
     20 S         144.9955  140.3586  163.6013 S.2     1  UNL1       -0.0819
     21 N         140.9684  140.7243  167.2255 N.pl3   1  UNL1       -0.3197
     22 H         141.9228  140.5165  167.3487 H       1  UNL1        0.1481
     23 C         140.4414  142.0782  167.5983 C.3     1  UNL1        0.0728
     24 C         140.1724  143.0981  166.5317 C.3     1  UNL1        0.0196
     25 C         141.1118  143.2342  165.3702 C.3     1  UNL1        0.0017
     26 C         141.8080  145.2198  163.8461 C.3     1  UNL1        0.0000
     27 C         140.7969  144.1917  164.2592 C.3     1  UNL1        0.0001
     28 C         140.1833  142.4124  169.0377 C.3     1  UNL1        0.0512
     29 C         140.8863  143.5737  169.6757 C.3     1  UNL1        0.1389
     30 O         140.0935  144.7327  170.2029 O.3     1  UNL1       -0.3819
     31 H         139.6605  145.1904  169.4654 H       1  UNL1        0.2104
@<TRIPOS>BOND
     1    26    27    1
     2    27    25    1
     3    25    24    1
     4    23    24    1
     5    23    28    1
     6    28    29    1
     7    29    30    1
     8    23    21    1
     9    21     1    1
    10     1     2   ar
    11     2     3   ar
    12     3     4    1
    13     3     5   ar
    14     5     6   ar
    15     6     7   ar
    16     7     8    1
    17     8     9    1
    18     9    10   am
    19    10    11    2
    20    10    16    1
    21    16    17   ar
    22    17    18   ar
    23    18    19   ar
    24    19    20   ar
    25     9    12    1
    26    12    13    1
    27     7     1   ar
    28    20    16   ar
    29    13     6    1
    30    30    31    1
    31    21    22    1
    32     4    14    1
    33     4    15    1
@<TRIPOS>MOLECULE
*****
 31 33 0 0 0
SMALL
GASTEIGER

@<TRIPOS>ATOM
      1 C         141.0245  144.1756  163.7158 C.ar    1  UNL1        0.1300
      2 N         140.7725  145.3567  162.8262 N.ar    1  UNL1       -0.1995
      3 C         139.4569  145.4959  162.1192 C.ar    1  UNL1        0.2145
      4 N         139.2049  146.6771  161.2295 N.pl3   1  UNL1       -0.3274
      5 N         138.3934  144.4540  162.3017 N.ar    1  UNL1       -0.2185
      6 C         138.6454  143.2728  163.1913 C.ar    1  UNL1        0.0639
      7 C         139.9610  143.1336  163.8984 C.ar    1  UNL1        0.0429
      8 C         140.2130  141.9525  164.7880 C.3     1  UNL1        0.1244
      9 N         139.1495  140.9106  164.9705 N.am    1  UNL1       -0.2710
     10 C         139.4015  139.7294  165.8601 C.2     1  UNL1        0.2553
     11 O         138.3379  138.6875  166.0427 O.2     1  UNL1       -0.2693
     12 C         137.8339  141.0499  164.2634 C.3     1  UNL1        0.1003
     13 C         137.5819  142.2310  163.3739 C.3     1  UNL1        0.0672
     14 H         139.9030  147.3609  161.1097 H       1  UNL1        0.1452
     15 H         138.3415  146.7685  160.7655 H       1  UNL1        0.1452
     16 C         140.7170  139.5902  166.5672 C.ar    1  UNL1        0.0830
     17 C         141.9622  138.9755  165.9999 C.ar    1  UNL1        0.0116
     18 C         143.0331  139.0466  167.0478 C.ar    1  UNL1        0.0076
     19 C         142.4499  139.7052  168.2627 C.ar    1  UNL1        0.0356
     20 S         141.0184  140.0411  167.9657 S.2     1  UNL1       -0.0819
     21 N         142.3401  144.0363  164.4229 N.pl3   1  UNL1       -0.3197
     22 H         142.4697  144.4491  165.3072 H       1  UNL1        0.1481
     23 C         143.4580  143.2681  163.7826 C.3     1  UNL1        0.0728
     24 C         143.9933  142.0322  164.4429 C.3     1  UNL1        0.0196
     25 C         144.6159  140.9485  163.6135 C.3     1  UNL1        0.0017
     26 C         144.1280  139.5714  161.4651 C.3     1  UNL1        0.0000
     27 C         143.7456  139.9923  162.8531 C.3     1  UNL1        0.0001
     28 C         144.0408  143.7359  162.4819 C.3     1  UNL1        0.0512
     29 C         143.3891  143.3516  161.1867 C.3     1  UNL1        0.1389
     30 O         142.4866  144.3223  160.4844 O.3     1  UNL1       -0.3819
     31 H         141.6958  144.4774  161.0243 H       1  UNL1        0.2104
@<TRIPOS>BOND
     1    26    27    1
     2    27    25    1
     3    25    24    1
     4    23    24    1
     5    23    28    1
     6    28    29    1
     7    29    30    1
     8    23    21    1
     9    21     1    1
    10     1     2   ar
    11     2     3   ar
    12     3     4    1
    13     3     5   ar
    14     5     6   ar
    15     6     7   ar
    16     7     8    1
    17     8     9    1
    18     9    10   am
    19    10    11    2
    20    10    16    1
    21    16    17   ar
    22    17    18   ar
    23    18    19   ar
    24    19    20   ar
    25     9    12    1
    26    12    13    1
    27     7     1   ar
    28    20    16   ar
    29    13     6    1
    30    30    31    1
    31    21    22    1
    32     4    14    1
    33     4    15    1
@<TRIPOS>MOLECULE
*****
 31 33 0 0 0
SMALL
GASTEIGER

@<TRIPOS>ATOM
      1 C         143.5336  139.0345  163.7842 C.ar    1  UNL1        0.1300
      2 N         143.8242  138.4659  162.4269 N.ar    1  UNL1       -0.1995
      3 C         142.7553  137.7249  161.6796 C.ar    1  UNL1        0.2145
      4 N         143.0459  137.1562  160.3223 N.pl3   1  UNL1       -0.3274
      5 N         141.3958  137.5526  162.2896 N.ar    1  UNL1       -0.2185
      6 C         141.1052  138.1212  163.6469 C.ar    1  UNL1        0.0639
      7 C         142.1740  138.8622  164.3942 C.ar    1  UNL1        0.0429
      8 C         141.8835  139.4308  165.7514 C.3     1  UNL1        0.1244
      9 N         140.5240  139.2585  166.3614 N.am    1  UNL1       -0.2710
     10 C         140.2333  139.8271  167.7187 C.2     1  UNL1        0.2553
     11 O         138.8739  139.6548  168.3286 O.2     1  UNL1       -0.2693
     12 C         139.4551  138.5175  165.6141 C.3     1  UNL1        0.1003
     13 C         139.7457  137.9489  164.2568 C.3     1  UNL1        0.0672
     14 H         143.9382  137.2694  159.9220 H       1  UNL1        0.1452
     15 H         142.3444  136.6699  159.8318 H       1  UNL1        0.1452
     16 C         141.3022  140.5681  168.4660 C.ar    1  UNL1        0.0830
     17 C         141.6687  142.0108  168.2811 C.ar    1  UNL1        0.0116
     18 C         142.7853  142.3308  169.2302 C.ar    1  UNL1        0.0076
     19 C         143.1089  141.0858  170.0017 C.ar    1  UNL1        0.0356
     20 S         142.1924  139.9964  169.5294 S.2     1  UNL1       -0.0819
     21 N         144.6025  139.7754  164.5315 N.pl3   1  UNL1       -0.3197
     22 H         145.1961  139.2916  165.1501 H       1  UNL1        0.1481
     23 C         144.7668  141.2535  164.3362 C.3     1  UNL1        0.0728
     24 C         144.0521  142.2136  165.2404 C.3     1  UNL1        0.0196
     25 C         142.9833  143.1097  164.6883 C.3     1  UNL1        0.0017
     26 C         141.3649  143.3139  162.6663 C.3     1  UNL1        0.0000
     27 C         141.8899  142.5363  163.8365 C.3     1  UNL1        0.0001
     28 C         145.6459  141.7717  163.2367 C.3     1  UNL1        0.0512
     29 C         145.0392  142.2253  161.9421 C.3     1  UNL1        0.1389
     30 O         144.8137  143.6868  161.6910 O.3     1  UNL1       -0.3819
     31 H         144.1458  144.0219  162.3095 H       1  UNL1        0.2104
@<TRIPOS>BOND
     1    26    27    1
     2    27    25    1
     3    25    24    1
     4    23    24    1
     5    23    28    1
     6    28    29    1
     7    29    30    1
     8    23    21    1
     9    21     1    1
    10     1     2   ar
    11     2     3   ar
    12     3     4    1
    13     3     5   ar
    14     5     6   ar
    15     6     7   ar
    16     7     8    1
    17     8     9    1
    18     9    10   am
    19    10    11    2
    20    10    16    1
    21    16    17   ar
    22    17    18   ar
    23    18    19   ar
    24    19    20   ar
    25     9    12    1
    26    12    13    1
    27     7     1   ar
    28    20    16   ar
    29    13     6    1
    30    30    31    1
    31    21    22    1
    32     4    14    1
    33     4    15    1
