@<TRIPOS>MOLECULE
*****
 28 30 0 0 0
SMALL
GASTEIGER

@<TRIPOS>ATOM
      1 C         143.0458  143.2539  159.7767 C.3     1  UNL1        0.0719
      2 C         142.0924  143.6503  160.8648 C.ar    1  UNL1        0.1229
      3 N         142.0958  142.9123  162.1706 N.ar    1  UNL1       -0.2322
      4 C         141.1424  143.3088  163.2588 C.ar    1  UNL1        0.0872
      5 C         141.1459  142.5707  164.5646 C.ar    1  UNL1        0.0193
      6 C         140.1925  142.9672  165.6527 C.ar    1  UNL1        0.0016
      7 C         139.2357  144.1017  165.4349 C.ar    1  UNL1        0.0003
      8 C         139.2323  144.8397  164.1290 C.ar    1  UNL1        0.0063
      9 C         140.1856  144.4433  163.0410 C.ar    1  UNL1        0.0738
     10 C         140.1822  145.1813  161.7351 C.ar    1  UNL1        0.2631
     11 O         139.2255  146.3158  161.5173 O.2     1  UNL1       -0.2669
     12 N         141.1356  144.7849  160.6470 N.ar    1  UNL1       -0.2837
     13 C         140.1959  142.2291  166.9586 C.2     1  UNL1        0.0048
     14 C         140.3763  142.9804  168.2442 C.2     1  UNL1        0.0598
     15 C         140.3797  142.2424  169.5501 C.2     1  UNL1        0.2679
     16 O         140.1893  140.7547  169.5713 O.2     1  UNL1       -0.2681
     17 N         140.5735  142.9920  170.8348 N.am    1  UNL1       -0.1934
     18 O         140.5769  142.2540  172.1406 O.3     1  UNL1       -0.2949
     19 H         140.6985  143.9685  170.8209 H       1  UNL1        0.1825
     20 H         140.4424  141.3073  171.9773 H       1  UNL1        0.2414
     21 C         141.1322  145.5229  159.3411 C.3     1  UNL1        0.1148
     22 C         140.1241  145.1757  158.2860 C.3     1  UNL1        0.0510
     23 C         140.1842  145.8415  156.9433 C.ar    1  UNL1       -0.0202
     24 C         139.3064  147.0224  156.6517 C.ar    1  UNL1       -0.0042
     25 C         139.3664  147.6882  155.3090 C.ar    1  UNL1       -0.0003
     26 C         140.3043  147.1731  154.2577 C.ar    1  UNL1       -0.0000
     27 C         141.1821  145.9922  154.5492 C.ar    1  UNL1       -0.0003
     28 C         141.1220  145.3264  155.8921 C.ar    1  UNL1       -0.0042
@<TRIPOS>BOND
     1     1     2    1
     2     2     3   ar
     3     3     4   ar
     4     4     5   ar
     5     5     6   ar
     6     6    13    1
     7    13    14    2
     8    14    15    1
     9    15    16    2
    10    15    17   am
    11    17    18    1
    12     6     7   ar
    13     7     8   ar
    14     8     9   ar
    15     9    10   ar
    16    10    11    2
    17    10    12   ar
    18    12    21    1
    19    21    22    1
    20    22    23    1
    21    23    24   ar
    22    24    25   ar
    23    25    26   ar
    24    26    27   ar
    25    27    28   ar
    26    12     2   ar
    27    28    23   ar
    28     9     4   ar
    29    17    19    1
    30    18    20    1
@<TRIPOS>MOLECULE
*****
 28 30 0 0 0
SMALL
GASTEIGER

@<TRIPOS>ATOM
      1 C         139.1657  142.9628  160.6544 C.3     1  UNL1        0.0719
      2 C         139.0713  141.7060  161.4677 C.ar    1  UNL1        0.1229
      3 N         138.9734  141.7855  162.9624 N.ar    1  UNL1       -0.2322
      4 C         138.8790  140.5286  163.7758 C.ar    1  UNL1        0.0872
      5 C         138.7811  140.6081  165.2704 C.ar    1  UNL1        0.0193
      6 C         138.6867  139.3513  166.0837 C.ar    1  UNL1        0.0016
      7 C         138.6900  138.0150  165.4024 C.ar    1  UNL1        0.0003
      8 C         138.7879  137.9355  163.9077 C.ar    1  UNL1        0.0063
      9 C         138.8823  139.1923  163.0944 C.ar    1  UNL1        0.0738
     10 C         138.9802  139.1129  161.5997 C.ar    1  UNL1        0.2631
     11 O         138.9835  137.7765  160.9183 O.2     1  UNL1       -0.2669
     12 N         139.0746  140.3697  160.7864 N.ar    1  UNL1       -0.2837
     13 C         138.5888  139.4308  167.5785 C.2     1  UNL1        0.0048
     14 C         139.6747  140.1014  168.3666 C.2     1  UNL1        0.0598
     15 C         139.5769  140.1808  169.8613 C.2     1  UNL1        0.2679
     16 O         138.2740  139.8873  170.5443 O.2     1  UNL1       -0.2681
     17 N         140.7819  140.5538  170.6730 N.am    1  UNL1       -0.1934
     18 O         140.6840  140.6333  172.1677 O.3     1  UNL1       -0.2949
     19 H         141.6370  140.7464  170.2248 H       1  UNL1        0.1825
     20 H         139.7801  140.4158  172.4445 H       1  UNL1        0.2414
     21 C         139.1725  140.2902  159.2916 C.3     1  UNL1        0.1148
     22 C         140.5088  140.1035  158.6364 C.3     1  UNL1        0.0510
     23 C         141.7185  139.8052  159.4716 C.ar    1  UNL1       -0.0202
     24 C         142.4855  140.9262  160.1081 C.ar    1  UNL1       -0.0042
     25 C         143.6951  140.6279  160.9433 C.ar    1  UNL1       -0.0003
     26 C         144.1380  139.2086  161.1420 C.ar    1  UNL1       -0.0000
     27 C         143.3710  138.0875  160.5055 C.ar    1  UNL1       -0.0003
     28 C         142.1612  138.3859  159.6703 C.ar    1  UNL1       -0.0042
@<TRIPOS>BOND
     1     1     2    1
     2     2     3   ar
     3     3     4   ar
     4     4     5   ar
     5     5     6   ar
     6     6    13    1
     7    13    14    2
     8    14    15    1
     9    15    16    2
    10    15    17   am
    11    17    18    1
    12     6     7   ar
    13     7     8   ar
    14     8     9   ar
    15     9    10   ar
    16    10    11    2
    17    10    12   ar
    18    12    21    1
    19    21    22    1
    20    22    23    1
    21    23    24   ar
    22    24    25   ar
    23    25    26   ar
    24    26    27   ar
    25    27    28   ar
    26    12     2   ar
    27    28    23   ar
    28     9     4   ar
    29    17    19    1
    30    18    20    1
@<TRIPOS>MOLECULE
*****
 28 30 0 0 0
SMALL
GASTEIGER

@<TRIPOS>ATOM
      1 C         143.2318  143.2237  160.2479 C.3     1  UNL1        0.0719
      2 C         142.2264  143.6077  161.2928 C.ar    1  UNL1        0.1229
      3 N         142.2964  142.9972  162.6611 N.ar    1  UNL1       -0.2322
      4 C         141.2910  143.3812  163.7060 C.ar    1  UNL1        0.0872
      5 C         141.3610  142.7707  165.0744 C.ar    1  UNL1        0.0193
      6 C         140.3556  143.1547  166.1192 C.ar    1  UNL1        0.0016
      7 C         139.2802  144.1491  165.7957 C.ar    1  UNL1        0.0003
      8 C         139.2102  144.7596  164.4274 C.ar    1  UNL1        0.0063
      9 C         140.2156  144.3756  163.3825 C.ar    1  UNL1        0.0738
     10 C         140.1456  144.9860  162.0141 C.ar    1  UNL1        0.2631
     11 O         139.0702  145.9805  161.6906 O.2     1  UNL1       -0.2669
     12 N         141.1510  144.6021  160.9693 N.ar    1  UNL1       -0.2837
     13 C         140.4256  142.5442  167.4876 C.2     1  UNL1        0.0048
     14 C         140.4797  143.4255  168.7002 C.2     1  UNL1        0.0598
     15 C         140.5497  142.8151  170.0686 C.2     1  UNL1        0.2679
     16 O         139.3112  142.2577  170.7054 O.2     1  UNL1       -0.2681
     17 N         141.8581  142.7619  170.8001 N.am    1  UNL1       -0.1934
     18 O         141.9280  142.1515  172.1685 O.3     1  UNL1       -0.2949
     19 H         142.6710  143.1277  170.3822 H       1  UNL1        0.1825
     20 H         141.0466  141.8425  172.4301 H       1  UNL1        0.2414
     21 C         141.0811  145.2125  159.6008 C.3     1  UNL1        0.1148
     22 C         140.0408  144.7484  158.6249 C.3     1  UNL1        0.0510
     23 C         139.7810  143.2819  158.4465 C.ar    1  UNL1       -0.0202
     24 C         140.7178  142.4489  157.6228 C.ar    1  UNL1       -0.0042
     25 C         140.4579  140.9825  157.4445 C.ar    1  UNL1       -0.0003
     26 C         139.2612  140.3489  158.0899 C.ar    1  UNL1       -0.0000
     27 C         138.3244  141.1819  158.9136 C.ar    1  UNL1       -0.0003
     28 C         138.5843  142.6484  159.0919 C.ar    1  UNL1       -0.0042
@<TRIPOS>BOND
     1     1     2    1
     2     2     3   ar
     3     3     4   ar
     4     4     5   ar
     5     5     6   ar
     6     6    13    1
     7    13    14    2
     8    14    15    1
     9    15    16    2
    10    15    17   am
    11    17    18    1
    12     6     7   ar
    13     7     8   ar
    14     8     9   ar
    15     9    10   ar
    16    10    11    2
    17    10    12   ar
    18    12    21    1
    19    21    22    1
    20    22    23    1
    21    23    24   ar
    22    24    25   ar
    23    25    26   ar
    24    26    27   ar
    25    27    28   ar
    26    12     2   ar
    27    28    23   ar
    28     9     4   ar
    29    17    19    1
    30    18    20    1
@<TRIPOS>MOLECULE
*****
 28 30 0 0 0
SMALL
GASTEIGER

@<TRIPOS>ATOM
      1 C         139.2017  143.2102  160.7255 C.3     1  UNL1        0.0719
      2 C         139.1147  141.9164  161.4797 C.ar    1  UNL1        0.1229
      3 N         139.0266  141.9256  162.9770 N.ar    1  UNL1       -0.2322
      4 C         138.9396  140.6318  163.7311 C.ar    1  UNL1        0.0872
      5 C         138.8515  140.6409  165.2285 C.ar    1  UNL1        0.0193
      6 C         138.7645  139.3472  165.9825 C.ar    1  UNL1        0.0016
      7 C         138.7656  138.0443  165.2392 C.ar    1  UNL1        0.0003
      8 C         138.8537  138.0351  163.7419 C.ar    1  UNL1        0.0063
      9 C         138.9407  139.3289  162.9878 C.ar    1  UNL1        0.0738
     10 C         139.0289  139.3198  161.4904 C.ar    1  UNL1        0.2631
     11 O         139.0300  138.0169  160.7471 O.2     1  UNL1       -0.2669
     12 N         139.1158  140.6135  160.7364 N.ar    1  UNL1       -0.2837
     13 C         138.6763  139.3563  167.4800 C.2     1  UNL1        0.0048
     14 C         139.5868  140.2404  168.2795 C.2     1  UNL1        0.0598
     15 C         139.4987  140.2495  169.7769 C.2     1  UNL1        0.2679
     16 O         138.1906  139.9631  170.4530 O.2     1  UNL1       -0.2681
     17 N         140.7185  140.5450  170.5982 N.am    1  UNL1       -0.1934
     18 O         140.6303  140.5540  172.0956 O.3     1  UNL1       -0.2949
     19 H         141.5770  140.7330  170.1545 H       1  UNL1        0.1825
     20 H         139.7215  140.3512  172.3672 H       1  UNL1        0.2414
     21 C         139.2040  140.6044  159.2389 C.3     1  UNL1        0.1148
     22 C         137.9615  140.4362  158.4155 C.3     1  UNL1        0.0510
     23 C         137.6258  141.4382  157.3510 C.ar    1  UNL1       -0.0202
     24 C         136.4176  141.2364  156.4853 C.ar    1  UNL1       -0.0042
     25 C         136.0819  142.2384  155.4208 C.ar    1  UNL1       -0.0003
     26 C         136.9544  143.4423  155.2220 C.ar    1  UNL1       -0.0000
     27 C         138.1626  143.6441  156.0878 C.ar    1  UNL1       -0.0003
     28 C         138.4983  142.6420  157.1523 C.ar    1  UNL1       -0.0042
@<TRIPOS>BOND
     1     1     2    1
     2     2     3   ar
     3     3     4   ar
     4     4     5   ar
     5     5     6   ar
     6     6    13    1
     7    13    14    2
     8    14    15    1
     9    15    16    2
    10    15    17   am
    11    17    18    1
    12     6     7   ar
    13     7     8   ar
    14     8     9   ar
    15     9    10   ar
    16    10    11    2
    17    10    12   ar
    18    12    21    1
    19    21    22    1
    20    22    23    1
    21    23    24   ar
    22    24    25   ar
    23    25    26   ar
    24    26    27   ar
    25    27    28   ar
    26    12     2   ar
    27    28    23   ar
    28     9     4   ar
    29    17    19    1
    30    18    20    1
@<TRIPOS>MOLECULE
*****
 28 30 0 0 0
SMALL
GASTEIGER

@<TRIPOS>ATOM
      1 C         139.8562  142.1820  160.8909 C.3     1  UNL1        0.0719
      2 C         139.6965  141.4433  162.1866 C.ar    1  UNL1        0.1229
      3 N         140.0553  142.1120  163.4804 N.ar    1  UNL1       -0.2322
      4 C         139.8956  141.3733  164.7761 C.ar    1  UNL1        0.0872
      5 C         140.2545  142.0420  166.0699 C.ar    1  UNL1        0.0193
      6 C         140.0948  141.3033  167.3655 C.ar    1  UNL1        0.0016
      7 C         139.5762  139.8958  167.3673 C.ar    1  UNL1        0.0003
      8 C         139.2174  139.2270  166.0735 C.ar    1  UNL1        0.0063
      9 C         139.3771  139.9658  164.7779 C.ar    1  UNL1        0.0738
     10 C         139.0182  139.2970  163.4840 C.ar    1  UNL1        0.2631
     11 O         138.4997  137.8895  163.4859 O.2     1  UNL1       -0.2669
     12 N         139.1779  140.0358  162.1884 N.ar    1  UNL1       -0.2837
     13 C         140.4536  141.9721  168.6594 C.2     1  UNL1        0.0048
     14 C         141.8523  141.8731  169.1921 C.2     1  UNL1        0.0598
     15 C         142.2111  142.5418  170.4860 C.2     1  UNL1        0.2679
     16 O         141.4974  142.1623  171.7496 O.2     1  UNL1       -0.2681
     17 N         143.2836  143.5900  170.5163 N.am    1  UNL1       -0.1934
     18 O         143.6424  144.2587  171.8101 O.3     1  UNL1       -0.2949
     19 H         143.7521  143.8391  169.6870 H       1  UNL1        0.1825
     20 H         143.0910  143.9003  172.5231 H       1  UNL1        0.2414
     21 C         138.8191  139.3670  160.8945 C.3     1  UNL1        0.1148
     22 C         139.7819  138.4139  160.2506 C.3     1  UNL1        0.0510
     23 C         141.2558  138.5643  160.4848 C.ar    1  UNL1       -0.0202
     24 C         141.9100  137.8500  161.6302 C.ar    1  UNL1       -0.0042
     25 C         143.3839  138.0004  161.8643 C.ar    1  UNL1       -0.0003
     26 C         144.2038  138.8651  160.9531 C.ar    1  UNL1       -0.0000
     27 C         143.5496  139.5794  159.8077 C.ar    1  UNL1       -0.0003
     28 C         142.0756  139.4290  159.5736 C.ar    1  UNL1       -0.0042
@<TRIPOS>BOND
     1     1     2    1
     2     2     3   ar
     3     3     4   ar
     4     4     5   ar
     5     5     6   ar
     6     6    13    1
     7    13    14    2
     8    14    15    1
     9    15    16    2
    10    15    17   am
    11    17    18    1
    12     6     7   ar
    13     7     8   ar
    14     8     9   ar
    15     9    10   ar
    16    10    11    2
    17    10    12   ar
    18    12    21    1
    19    21    22    1
    20    22    23    1
    21    23    24   ar
    22    24    25   ar
    23    25    26   ar
    24    26    27   ar
    25    27    28   ar
    26    12     2   ar
    27    28    23   ar
    28     9     4   ar
    29    17    19    1
    30    18    20    1
@<TRIPOS>MOLECULE
*****
 28 30 0 0 0
SMALL
GASTEIGER

@<TRIPOS>ATOM
      1 C         144.4846  140.7083  164.3474 C.3     1  UNL1        0.0719
      2 C         143.3358  141.6609  164.1957 C.ar    1  UNL1        0.1229
      3 N         143.1294  142.3866  162.8993 N.ar    1  UNL1       -0.2322
      4 C         141.9806  143.3392  162.7477 C.ar    1  UNL1        0.0872
      5 C         141.7742  144.0649  161.4513 C.ar    1  UNL1        0.0193
      6 C         140.6254  145.0175  161.2997 C.ar    1  UNL1        0.0016
      7 C         139.6832  145.2443  162.4445 C.ar    1  UNL1        0.0003
      8 C         139.8896  144.5187  163.7409 C.ar    1  UNL1        0.0063
      9 C         141.0383  143.5661  163.8925 C.ar    1  UNL1        0.0738
     10 C         141.2448  142.8404  165.1890 C.ar    1  UNL1        0.2631
     11 O         140.3025  143.0672  166.3338 O.2     1  UNL1       -0.2669
     12 N         142.3935  141.8878  165.3406 N.ar    1  UNL1       -0.2837
     13 C         140.4190  145.7432  160.0032 C.2     1  UNL1        0.0048
     14 C         140.9659  145.1721  158.7286 C.2     1  UNL1        0.0598
     15 C         140.7594  145.8978  157.4322 C.2     1  UNL1        0.2679
     16 O         141.5772  145.5316  156.2292 O.2     1  UNL1       -0.2681
     17 N         139.7352  146.9897  157.3387 N.am    1  UNL1       -0.1934
     18 O         139.5288  147.7154  156.0423 O.3     1  UNL1       -0.2949
     19 H         139.1985  147.2300  158.1283 H       1  UNL1        0.1825
     20 H         140.1327  147.3585  155.3723 H       1  UNL1        0.2414
     21 C         142.6000  141.1621  166.6370 C.3     1  UNL1        0.1148
     22 C         141.7434  139.9792  166.9790 C.3     1  UNL1        0.0510
     23 C         141.0876  139.1872  165.8869 C.ar    1  UNL1       -0.0202
     24 C         141.8815  138.1770  165.1127 C.ar    1  UNL1       -0.0042
     25 C         141.2258  137.3851  164.0206 C.ar    1  UNL1       -0.0003
     26 C         139.7761  137.6033  163.7026 C.ar    1  UNL1       -0.0000
     27 C         138.9823  138.6134  164.4768 C.ar    1  UNL1       -0.0003
     28 C         139.6381  139.4054  165.5690 C.ar    1  UNL1       -0.0042
@<TRIPOS>BOND
     1     1     2    1
     2     2     3   ar
     3     3     4   ar
     4     4     5   ar
     5     5     6   ar
     6     6    13    1
     7    13    14    2
     8    14    15    1
     9    15    16    2
    10    15    17   am
    11    17    18    1
    12     6     7   ar
    13     7     8   ar
    14     8     9   ar
    15     9    10   ar
    16    10    11    2
    17    10    12   ar
    18    12    21    1
    19    21    22    1
    20    22    23    1
    21    23    24   ar
    22    24    25   ar
    23    25    26   ar
    24    26    27   ar
    25    27    28   ar
    26    12     2   ar
    27    28    23   ar
    28     9     4   ar
    29    17    19    1
    30    18    20    1
@<TRIPOS>MOLECULE
*****
 28 30 0 0 0
SMALL
GASTEIGER

@<TRIPOS>ATOM
      1 C         137.5593  140.6596  162.4688 C.3     1  UNL1        0.0719
      2 C         138.7171  140.0676  163.2167 C.ar    1  UNL1        0.1229
      3 N         139.2348  140.7415  164.4527 N.ar    1  UNL1       -0.2322
      4 C         140.3926  140.1496  165.2007 C.ar    1  UNL1        0.0872
      5 C         140.9103  140.8235  166.4367 C.ar    1  UNL1        0.0193
      6 C         142.0680  140.2315  167.1846 C.ar    1  UNL1        0.0016
      7 C         142.7079  138.9657  166.6964 C.ar    1  UNL1        0.0003
      8 C         142.1902  138.2919  165.4604 C.ar    1  UNL1        0.0063
      9 C         141.0325  138.8838  164.7125 C.ar    1  UNL1        0.0738
     10 C         140.5146  138.2099  163.4764 C.ar    1  UNL1        0.2631
     11 O         141.1546  136.9441  162.9883 O.2     1  UNL1       -0.2669
     12 N         139.3570  138.8019  162.7286 N.ar    1  UNL1       -0.2837
     13 C         142.5858  140.9054  168.4206 C.2     1  UNL1        0.0048
     14 C         141.6989  141.8335  169.1964 C.2     1  UNL1        0.0598
     15 C         142.2167  142.5074  170.4325 C.2     1  UNL1        0.2679
     16 O         141.6665  142.1335  171.7769 O.2     1  UNL1       -0.2681
     17 N         143.2846  143.5551  170.3241 N.am    1  UNL1       -0.1934
     18 O         143.8024  144.2289  171.5601 O.3     1  UNL1       -0.2949
     19 H         143.6457  143.8005  169.4417 H       1  UNL1        0.1825
     20 H         143.3444  143.8737  172.3380 H       1  UNL1        0.2414
     21 C         138.8391  138.1280  161.4925 C.3     1  UNL1        0.1148
     22 C         139.5493  138.3127  160.1842 C.3     1  UNL1        0.0510
     23 C         140.3183  139.5730  159.9196 C.ar    1  UNL1       -0.0202
     24 C         141.7901  139.6272  160.2043 C.ar    1  UNL1       -0.0042
     25 C         142.5592  140.8876  159.9397 C.ar    1  UNL1       -0.0003
     26 C         141.8565  142.0937  159.3905 C.ar    1  UNL1       -0.0000
     27 C         140.3848  142.0395  159.1059 C.ar    1  UNL1       -0.0003
     28 C         139.6157  140.7791  159.3705 C.ar    1  UNL1       -0.0042
@<TRIPOS>BOND
     1     1     2    1
     2     2     3   ar
     3     3     4   ar
     4     4     5   ar
     5     5     6   ar
     6     6    13    1
     7    13    14    2
     8    14    15    1
     9    15    16    2
    10    15    17   am
    11    17    18    1
    12     6     7   ar
    13     7     8   ar
    14     8     9   ar
    15     9    10   ar
    16    10    11    2
    17    10    12   ar
    18    12    21    1
    19    21    22    1
    20    22    23    1
    21    23    24   ar
    22    24    25   ar
    23    25    26   ar
    24    26    27   ar
    25    27    28   ar
    26    12     2   ar
    27    28    23   ar
    28     9     4   ar
    29    17    19    1
    30    18    20    1
@<TRIPOS>MOLECULE
*****
 28 30 0 0 0
SMALL
GASTEIGER

@<TRIPOS>ATOM
      1 C         144.0875  138.5450  161.9985 C.3     1  UNL1        0.0719
      2 C         142.6947  138.6281  162.5494 C.ar    1  UNL1        0.1229
      3 N         142.4776  138.9963  163.9871 N.ar    1  UNL1       -0.2322
      4 C         141.0848  139.0795  164.5380 C.ar    1  UNL1        0.0872
      5 C         140.8676  139.4477  165.9757 C.ar    1  UNL1        0.0193
      6 C         139.4749  139.5308  166.5265 C.ar    1  UNL1        0.0016
      7 C         138.2994  139.2457  165.6395 C.ar    1  UNL1        0.0003
      8 C         138.5165  138.8774  164.2017 C.ar    1  UNL1        0.0063
      9 C         139.9092  138.7943  163.6510 C.ar    1  UNL1        0.0738
     10 C         140.1264  138.4260  162.2131 C.ar    1  UNL1        0.2631
     11 O         138.9509  138.1409  161.3261 O.2     1  UNL1       -0.2669
     12 N         141.5192  138.3429  161.6624 N.ar    1  UNL1       -0.2837
     13 C         139.2577  139.8991  167.9643 C.2     1  UNL1        0.0048
     14 C         140.4330  140.0706  168.8804 C.2     1  UNL1        0.0598
     15 C         140.2158  140.4389  170.3182 C.2     1  UNL1        0.2679
     16 O         139.4951  139.4942  171.2337 O.2     1  UNL1       -0.2681
     17 N         140.7192  141.7518  170.8404 N.am    1  UNL1       -0.1934
     18 O         140.5020  142.1200  172.2782 O.3     1  UNL1       -0.2949
     19 H         141.1922  142.3718  170.2396 H       1  UNL1        0.1825
     20 H         140.0243  141.4046  172.7265 H       1  UNL1        0.2414
     21 C         141.7364  137.9747  160.2245 C.3     1  UNL1        0.1148
     22 C         141.8922  139.0499  159.1903 C.3     1  UNL1        0.0510
     23 C         141.1629  140.3514  159.3457 C.ar    1  UNL1       -0.0202
     24 C         141.8470  141.5226  159.9861 C.ar    1  UNL1       -0.0042
     25 C         141.1177  142.8241  160.1415 C.ar    1  UNL1       -0.0003
     26 C         139.7042  142.9544  159.6565 C.ar    1  UNL1       -0.0000
     27 C         139.0201  141.7832  159.0161 C.ar    1  UNL1       -0.0003
     28 C         139.7495  140.4816  158.8607 C.ar    1  UNL1       -0.0042
@<TRIPOS>BOND
     1     1     2    1
     2     2     3   ar
     3     3     4   ar
     4     4     5   ar
     5     5     6   ar
     6     6    13    1
     7    13    14    2
     8    14    15    1
     9    15    16    2
    10    15    17   am
    11    17    18    1
    12     6     7   ar
    13     7     8   ar
    14     8     9   ar
    15     9    10   ar
    16    10    11    2
    17    10    12   ar
    18    12    21    1
    19    21    22    1
    20    22    23    1
    21    23    24   ar
    22    24    25   ar
    23    25    26   ar
    24    26    27   ar
    25    27    28   ar
    26    12     2   ar
    27    28    23   ar
    28     9     4   ar
    29    17    19    1
    30    18    20    1
@<TRIPOS>MOLECULE
*****
 28 30 0 0 0
SMALL
GASTEIGER

@<TRIPOS>ATOM
      1 C         138.1728  137.9961  162.0373 C.3     1  UNL1        0.0719
      2 C         138.4365  139.3500  162.6269 C.ar    1  UNL1        0.1229
      3 N         138.9807  139.4685  164.0196 N.ar    1  UNL1       -0.2322
      4 C         139.2445  140.8223  164.6092 C.ar    1  UNL1        0.0872
      5 C         139.7887  140.9408  166.0019 C.ar    1  UNL1        0.0193
      6 C         140.0524  142.2946  166.5914 C.ar    1  UNL1        0.0016
      7 C         139.7719  143.5300  165.7882 C.ar    1  UNL1        0.0003
      8 C         139.2277  143.4115  164.3955 C.ar    1  UNL1        0.0063
      9 C         138.9640  142.0577  163.8060 C.ar    1  UNL1        0.0738
     10 C         138.4198  141.9392  162.4132 C.ar    1  UNL1        0.2631
     11 O         138.1393  143.1746  161.6099 O.2     1  UNL1       -0.2669
     12 N         138.1560  140.5854  161.8237 N.ar    1  UNL1       -0.2837
     13 C         140.5967  142.4131  167.9842 C.2     1  UNL1        0.0048
     14 C         142.0791  142.4104  168.2129 C.2     1  UNL1        0.0598
     15 C         142.6234  142.5290  169.6057 C.2     1  UNL1        0.2679
     16 O         144.0762  142.8348  169.8197 O.2     1  UNL1       -0.2681
     17 N         141.7148  142.3416  170.7845 N.am    1  UNL1       -0.1934
     18 O         142.2591  142.4601  172.1772 O.3     1  UNL1       -0.2949
     19 H         140.7613  142.1408  170.6440 H       1  UNL1        0.1825
     20 H         143.2076  142.6593  172.1378 H       1  UNL1        0.2414
     21 C         137.6118  140.4669  160.4309 C.3     1  UNL1        0.1148
     22 C         138.4973  140.7479  159.2532 C.3     1  UNL1        0.0510
     23 C         139.9462  140.3624  159.2954 C.ar    1  UNL1       -0.0202
     24 C         140.3380  138.9146  159.2749 C.ar    1  UNL1       -0.0042
     25 C         141.7870  138.5290  159.3171 C.ar    1  UNL1       -0.0003
     26 C         142.8442  139.5913  159.3799 C.ar    1  UNL1       -0.0000
     27 C         142.4525  141.0391  159.4004 C.ar    1  UNL1       -0.0003
     28 C         141.0034  141.4246  159.3581 C.ar    1  UNL1       -0.0042
@<TRIPOS>BOND
     1     1     2    1
     2     2     3   ar
     3     3     4   ar
     4     4     5   ar
     5     5     6   ar
     6     6    13    1
     7    13    14    2
     8    14    15    1
     9    15    16    2
    10    15    17   am
    11    17    18    1
    12     6     7   ar
    13     7     8   ar
    14     8     9   ar
    15     9    10   ar
    16    10    11    2
    17    10    12   ar
    18    12    21    1
    19    21    22    1
    20    22    23    1
    21    23    24   ar
    22    24    25   ar
    23    25    26   ar
    24    26    27   ar
    25    27    28   ar
    26    12     2   ar
    27    28    23   ar
    28     9     4   ar
    29    17    19    1
    30    18    20    1
