@<TRIPOS>MOLECULE
*****
 29 31 0 0 0
SMALL
GASTEIGER

@<TRIPOS>ATOM
      1 C         138.5870  143.8863  163.4684 C.ar    1  UNL1        0.1393
      2 C         139.5595  143.8249  164.6088 C.ar    1  UNL1        0.0370
      3 C         139.6800  142.5722  165.4251 C.ar    1  UNL1        0.0063
      4 C         138.8280  141.3810  165.1010 C.ar    1  UNL1        0.0392
      5 C         137.8555  141.4423  163.9606 C.ar    1  UNL1        0.0063
      6 C         137.7350  142.6950  163.1443 C.ar    1  UNL1        0.0370
      7 C         138.9486  140.1283  165.9173 C.2     1  UNL1        0.1961
      8 O         137.9553  139.0184  165.7390 O.2     1  UNL1       -0.2866
      9 C         140.0623  139.9855  166.9119 C.ar    1  UNL1        0.0460
     10 C         139.8162  140.2832  168.3613 C.ar    1  UNL1        0.0151
     11 C         140.9299  140.1404  169.3559 C.ar    1  UNL1        0.0578
     12 CL        140.6838  140.4381  170.8053 Cl      1  UNL1       -0.0822
     13 C         142.2897  139.7000  168.9012 C.ar    1  UNL1        0.0119
     14 C         142.5358  139.4022  167.4517 C.ar    1  UNL1        0.0077
     15 C         141.4221  139.5450  166.4571 C.ar    1  UNL1        0.0377
     16 BR        141.6682  139.2474  165.0077 Br      1  UNL1       -0.0489
     17 O         138.4665  145.1389  162.6521 O.3     1  UNL1       -0.4656
     18 C         139.6744  145.7076  161.9685 C.3     1  UNL1        0.2897
     19 N         141.4678  145.5437  160.0957 N.am    1  UNL1       -0.2810
     20 C         140.1509  145.1179  160.6741 C.2     1  UNL1        0.2707
     21 O         139.3106  144.1023  159.9583 O.2     1  UNL1       -0.2707
     22 H         142.0193  146.2102  160.5656 H       1  UNL1        0.1550
     23 C         143.0056  142.9677  160.0971 C.3     1  UNL1        0.0340
     24 C         142.7132  143.6660  158.8021 C.ar    1  UNL1        0.0108
     25 C         143.1896  143.0763  157.5078 C.ar    1  UNL1        0.0958
     26 N         142.8972  143.7745  156.2129 N.ar    1  UNL1       -0.2426
     27 C         142.1284  145.0625  156.2122 C.ar    1  UNL1        0.1001
     28 C         141.6519  145.6521  157.5064 C.ar    1  UNL1        0.0350
     29 C         141.9443  144.9539  158.8014 C.ar    1  UNL1        0.0494
@<TRIPOS>BOND
     1    23    24    1
     2    24    25   ar
     3    25    26   ar
     4    26    27   ar
     5    27    28   ar
     6    28    29   ar
     7    29    19    1
     8    19    20   am
     9    20    21    2
    10    20    18    1
    11    18    17    1
    12    17     1    1
    13     1     2   ar
    14     2     3   ar
    15     3     4   ar
    16     4     7    1
    17     7     8    2
    18     7     9    1
    19     9    10   ar
    20    10    11   ar
    21    11    12    1
    22    11    13   ar
    23    13    14   ar
    24    14    15   ar
    25    15    16    1
    26     4     5   ar
    27     5     6   ar
    28    29    24   ar
    29     6     1   ar
    30    15     9   ar
    31    19    22    1
@<TRIPOS>MOLECULE
*****
 29 31 0 0 0
SMALL
GASTEIGER

@<TRIPOS>ATOM
      1 C         141.3115  138.8244  164.4842 C.ar    1  UNL1        0.1393
      2 C         141.8124  139.5113  163.2484 C.ar    1  UNL1        0.0370
      3 C         140.9179  140.4542  162.4995 C.ar    1  UNL1        0.0063
      4 C         139.5224  140.7101  162.9864 C.ar    1  UNL1        0.0392
      5 C         139.0214  140.0232  164.2222 C.ar    1  UNL1        0.0063
      6 C         139.9159  139.0804  164.9711 C.ar    1  UNL1        0.0370
      7 C         138.6279  141.6529  162.2375 C.2     1  UNL1        0.1961
      8 O         137.2903  141.1858  161.7447 O.2     1  UNL1       -0.2866
      9 C         139.0709  143.0630  161.9813 C.ar    1  UNL1        0.0460
     10 C         139.8024  143.4012  160.7162 C.ar    1  UNL1        0.0151
     11 C         140.2453  144.8112  160.4601 C.ar    1  UNL1        0.0578
     12 CL        140.9768  145.1494  159.1950 Cl      1  UNL1       -0.0822
     13 C         139.9568  145.8830  161.4690 C.ar    1  UNL1        0.0119
     14 C         139.2253  145.5448  162.7342 C.ar    1  UNL1        0.0077
     15 C         138.7823  144.1348  162.9903 C.ar    1  UNL1        0.0377
     16 BR        138.0508  143.7965  164.2554 Br      1  UNL1       -0.0489
     17 O         142.2060  137.8816  165.2331 O.3     1  UNL1       -0.4656
     18 C         143.2997  138.4202  166.1069 C.3     1  UNL1        0.2897
     19 N         142.3961  140.5734  167.2460 N.am    1  UNL1       -0.2810
     20 C         142.9575  139.1864  167.3503 C.2     1  UNL1        0.2707
     21 O         143.1768  138.5654  168.6981 O.2     1  UNL1       -0.2707
     22 H         142.2522  140.9809  166.3614 H       1  UNL1        0.1550
     23 C         139.6639  140.3216  168.4590 C.3     1  UNL1        0.0340
     24 C         140.6879  141.2136  169.0959 C.ar    1  UNL1        0.0108
     25 C         140.3458  141.9798  170.3392 C.ar    1  UNL1        0.0958
     26 N         141.3698  142.8718  170.9761 N.ar    1  UNL1       -0.2426
     27 C         142.7359  142.9978  170.3696 C.ar    1  UNL1        0.1001
     28 C         143.0780  142.2316  169.1263 C.ar    1  UNL1        0.0350
     29 C         142.0540  141.3396  168.4894 C.ar    1  UNL1        0.0494
@<TRIPOS>BOND
     1    23    24    1
     2    24    25   ar
     3    25    26   ar
     4    26    27   ar
     5    27    28   ar
     6    28    29   ar
     7    29    19    1
     8    19    20   am
     9    20    21    2
    10    20    18    1
    11    18    17    1
    12    17     1    1
    13     1     2   ar
    14     2     3   ar
    15     3     4   ar
    16     4     7    1
    17     7     8    2
    18     7     9    1
    19     9    10   ar
    20    10    11   ar
    21    11    12    1
    22    11    13   ar
    23    13    14   ar
    24    14    15   ar
    25    15    16    1
    26     4     5   ar
    27     5     6   ar
    28    29    24   ar
    29     6     1   ar
    30    15     9   ar
    31    19    22    1
@<TRIPOS>MOLECULE
*****
 29 31 0 0 0
SMALL
GASTEIGER

@<TRIPOS>ATOM
      1 C         138.5557  143.6394  163.7056 C.ar    1  UNL1        0.1393
      2 C         137.8876  142.3585  163.3019 C.ar    1  UNL1        0.0370
      3 C         138.0201  141.1390  164.1653 C.ar    1  UNL1        0.0063
      4 C         138.8205  141.2005  165.4323 C.ar    1  UNL1        0.0392
      5 C         139.4886  142.4814  165.8360 C.ar    1  UNL1        0.0063
      6 C         139.3562  143.7008  164.9727 C.ar    1  UNL1        0.0370
      7 C         138.9529  139.9810  166.2957 C.2     1  UNL1        0.1961
      8 O         137.9699  138.8561  166.1606 O.2     1  UNL1       -0.2866
      9 C         140.0684  139.8865  167.2941 C.ar    1  UNL1        0.0460
     10 C         139.8010  140.1564  168.7451 C.ar    1  UNL1        0.0151
     11 C         140.9164  140.0619  169.7436 C.ar    1  UNL1        0.0578
     12 CL        140.6491  140.3319  171.1946 Cl      1  UNL1       -0.0822
     13 C         142.2992  139.6973  169.2910 C.ar    1  UNL1        0.0119
     14 C         142.5667  139.4273  167.8399 C.ar    1  UNL1        0.0077
     15 C         141.4512  139.5219  166.8414 C.ar    1  UNL1        0.0377
     16 BR        141.7186  139.2519  165.3904 Br      1  UNL1       -0.0489
     17 O         138.4233  144.8588  162.8423 O.3     1  UNL1       -0.4656
     18 C         139.5333  145.2408  161.9086 C.3     1  UNL1        0.2897
     19 N         141.9129  144.4890  162.6315 N.am    1  UNL1       -0.2810
     20 C         140.7167  144.3346  161.7398 C.2     1  UNL1        0.2707
     21 O         140.7037  143.2738  160.6793 O.2     1  UNL1       -0.2707
     22 H         141.9214  145.1852  163.3275 H       1  UNL1        0.1550
     23 C         143.0841  143.0916  165.0138 C.3     1  UNL1        0.0340
     24 C         143.6819  142.8841  163.6538 C.ar    1  UNL1        0.0108
     25 C         144.8651  141.9779  163.4849 C.ar    1  UNL1        0.0958
     26 N         145.4629  141.7703  162.1249 N.ar    1  UNL1       -0.2426
     27 C         144.8773  142.4690  160.9337 C.ar    1  UNL1        0.1001
     28 C         143.6940  143.3752  161.1026 C.ar    1  UNL1        0.0350
     29 C         143.0963  143.5828  162.4626 C.ar    1  UNL1        0.0494
@<TRIPOS>BOND
     1    23    24    1
     2    24    25   ar
     3    25    26   ar
     4    26    27   ar
     5    27    28   ar
     6    28    29   ar
     7    29    19    1
     8    19    20   am
     9    20    21    2
    10    20    18    1
    11    18    17    1
    12    17     1    1
    13     1     2   ar
    14     2     3   ar
    15     3     4   ar
    16     4     7    1
    17     7     8    2
    18     7     9    1
    19     9    10   ar
    20    10    11   ar
    21    11    12    1
    22    11    13   ar
    23    13    14   ar
    24    14    15   ar
    25    15    16    1
    26     4     5   ar
    27     5     6   ar
    28    29    24   ar
    29     6     1   ar
    30    15     9   ar
    31    19    22    1
@<TRIPOS>MOLECULE
*****
 29 31 0 0 0
SMALL
GASTEIGER

@<TRIPOS>ATOM
      1 C         139.3411  137.9086  163.6202 C.ar    1  UNL1        0.1393
      2 C         139.1371  138.8182  164.7953 C.ar    1  UNL1        0.0370
      3 C         140.2796  139.1155  165.7209 C.ar    1  UNL1        0.0063
      4 C         141.6259  138.5030  165.4712 C.ar    1  UNL1        0.0392
      5 C         141.8298  137.5933  164.2961 C.ar    1  UNL1        0.0063
      6 C         140.6875  137.2961  163.3706 C.ar    1  UNL1        0.0370
      7 C         142.7683  138.8003  166.3967 C.2     1  UNL1        0.1961
      8 O         143.9851  137.9231  166.3921 O.2     1  UNL1       -0.2866
      9 C         142.6938  139.9746  167.3270 C.ar    1  UNL1        0.0460
     10 C         142.2943  139.7732  168.7587 C.ar    1  UNL1        0.0151
     11 C         142.2199  140.9476  169.6889 C.ar    1  UNL1        0.0578
     12 CL        141.8203  140.7462  171.1206 Cl      1  UNL1       -0.0822
     13 C         142.5450  142.3234  169.1874 C.ar    1  UNL1        0.0119
     14 C         142.9446  142.5248  167.7557 C.ar    1  UNL1        0.0077
     15 C         143.0190  141.3505  166.8254 C.ar    1  UNL1        0.0377
     16 BR        143.4186  141.5519  165.3938 Br      1  UNL1       -0.0489
     17 O         138.1987  137.6113  162.6947 O.3     1  UNL1       -0.4656
     18 C         137.9845  138.4545  161.4728 C.3     1  UNL1        0.2897
     19 N         137.7732  141.0423  161.5669 N.am    1  UNL1       -0.2810
     20 C         138.6128  139.8135  161.3797 C.2     1  UNL1        0.2707
     21 O         140.0806  139.9435  161.0995 O.2     1  UNL1       -0.2707
     22 H         136.8098  140.9569  161.7509 H       1  UNL1        0.1550
     23 C         137.6530  142.9141  163.9083 C.3     1  UNL1        0.0340
     24 C         138.3414  143.3371  162.6446 C.ar    1  UNL1        0.0108
     25 C         138.9696  144.6960  162.5514 C.ar    1  UNL1        0.0958
     26 N         139.6580  145.1190  161.2877 N.ar    1  UNL1       -0.2426
     27 C         139.7181  144.1832  160.1170 C.ar    1  UNL1        0.1001
     28 C         139.0899  142.8243  160.2101 C.ar    1  UNL1        0.0350
     29 C         138.4015  142.4013  161.4739 C.ar    1  UNL1        0.0494
@<TRIPOS>BOND
     1    23    24    1
     2    24    25   ar
     3    25    26   ar
     4    26    27   ar
     5    27    28   ar
     6    28    29   ar
     7    29    19    1
     8    19    20   am
     9    20    21    2
    10    20    18    1
    11    18    17    1
    12    17     1    1
    13     1     2   ar
    14     2     3   ar
    15     3     4   ar
    16     4     7    1
    17     7     8    2
    18     7     9    1
    19     9    10   ar
    20    10    11   ar
    21    11    12    1
    22    11    13   ar
    23    13    14   ar
    24    14    15   ar
    25    15    16    1
    26     4     5   ar
    27     5     6   ar
    28    29    24   ar
    29     6     1   ar
    30    15     9   ar
    31    19    22    1
@<TRIPOS>MOLECULE
*****
 29 31 0 0 0
SMALL
GASTEIGER

@<TRIPOS>ATOM
      1 C         139.0097  144.1728  163.9360 C.ar    1  UNL1        0.1393
      2 C         138.0060  143.1029  163.6227 C.ar    1  UNL1        0.0370
      3 C         138.0760  141.7798  164.3259 C.ar    1  UNL1        0.0063
      4 C         139.1495  141.5265  165.3424 C.ar    1  UNL1        0.0392
      5 C         140.1531  142.5964  165.6558 C.ar    1  UNL1        0.0063
      6 C         140.0833  143.9194  164.9526 C.ar    1  UNL1        0.0370
      7 C         139.2194  140.2034  166.0456 C.2     1  UNL1        0.1961
      8 O         138.2900  139.0942  165.6507 O.2     1  UNL1       -0.2866
      9 C         140.2186  139.9895  167.1437 C.ar    1  UNL1        0.0460
     10 C         139.8356  140.2579  168.5689 C.ar    1  UNL1        0.0151
     11 C         140.8348  140.0440  169.6671 C.ar    1  UNL1        0.0578
     12 CL        140.4519  140.3124  171.0923 Cl      1  UNL1       -0.0822
     13 C         142.2170  139.5617  169.3400 C.ar    1  UNL1        0.0119
     14 C         142.6000  139.2933  167.9147 C.ar    1  UNL1        0.0077
     15 C         141.6008  139.5072  166.8166 C.ar    1  UNL1        0.0377
     16 BR        141.9837  139.2388  165.3914 Br      1  UNL1       -0.0489
     17 O         138.9398  145.4959  163.2329 O.3     1  UNL1       -0.4656
     18 C         139.8449  145.7759  162.0700 C.3     1  UNL1        0.2897
     19 N         141.7563  144.1073  161.5109 N.am    1  UNL1       -0.2810
     20 C         140.3802  144.6423  161.2462 C.2     1  UNL1        0.2707
     21 O         139.5393  144.0438  160.1578 O.2     1  UNL1       -0.2707
     22 H         142.3082  144.5001  162.2252 H       1  UNL1        0.1550
     23 C         141.1447  141.2732  162.2817 C.3     1  UNL1        0.0340
     24 C         141.9857  141.5567  161.0725 C.ar    1  UNL1        0.0108
     25 C         142.5210  140.4232  160.2487 C.ar    1  UNL1        0.0958
     26 N         143.3620  140.7067  159.0394 N.ar    1  UNL1       -0.2426
     27 C         143.6678  142.1237  158.6540 C.ar    1  UNL1        0.1001
     28 C         143.1326  143.2572  159.4778 C.ar    1  UNL1        0.0350
     29 C         142.2915  142.9737  160.6870 C.ar    1  UNL1        0.0494
@<TRIPOS>BOND
     1    23    24    1
     2    24    25   ar
     3    25    26   ar
     4    26    27   ar
     5    27    28   ar
     6    28    29   ar
     7    29    19    1
     8    19    20   am
     9    20    21    2
    10    20    18    1
    11    18    17    1
    12    17     1    1
    13     1     2   ar
    14     2     3   ar
    15     3     4   ar
    16     4     7    1
    17     7     8    2
    18     7     9    1
    19     9    10   ar
    20    10    11   ar
    21    11    12    1
    22    11    13   ar
    23    13    14   ar
    24    14    15   ar
    25    15    16    1
    26     4     5   ar
    27     5     6   ar
    28    29    24   ar
    29     6     1   ar
    30    15     9   ar
    31    19    22    1
@<TRIPOS>MOLECULE
*****
 29 31 0 0 0
SMALL
GASTEIGER

@<TRIPOS>ATOM
      1 C         140.5059  145.1737  163.2467 C.ar    1  UNL1        0.1393
      2 C         139.5588  144.5832  164.2488 C.ar    1  UNL1        0.0370
      3 C         140.0636  143.6162  165.2785 C.ar    1  UNL1        0.0063
      4 C         141.5153  143.2398  165.3060 C.ar    1  UNL1        0.0392
      5 C         142.4624  143.8304  164.3039 C.ar    1  UNL1        0.0063
      6 C         141.9577  144.7973  163.2742 C.ar    1  UNL1        0.0370
      7 C         142.0200  142.2729  166.3357 C.2     1  UNL1        0.1961
      8 O         143.4399  141.7920  166.2808 O.2     1  UNL1       -0.2866
      9 C         141.1049  141.7868  167.4203 C.ar    1  UNL1        0.0460
     10 C         140.8522  142.6409  168.6272 C.ar    1  UNL1        0.0151
     11 C         139.9371  142.1548  169.7117 C.ar    1  UNL1        0.0578
     12 CL        139.6844  143.0089  170.9186 Cl      1  UNL1       -0.0822
     13 C         139.2748  140.8145  169.5895 C.ar    1  UNL1        0.0119
     14 C         139.5275  139.9603  168.3826 C.ar    1  UNL1        0.0077
     15 C         140.4426  140.4464  167.2980 C.ar    1  UNL1        0.0377
     16 BR        140.6954  139.5923  166.0911 Br      1  UNL1       -0.0489
     17 O         140.0012  146.1407  162.2170 O.3     1  UNL1       -0.4656
     18 C         140.1460  145.8256  160.7576 C.3     1  UNL1        0.2897
     19 N         138.8264  143.6166  160.3985 N.am    1  UNL1       -0.2810
     20 C         140.1002  144.4011  160.2897 C.2     1  UNL1        0.2707
     21 O         141.3282  143.7613  159.7130 O.2     1  UNL1       -0.2707
     22 H         138.0204  144.0366  160.7770 H       1  UNL1        0.1550
     23 C         139.4819  141.3911  162.3005 C.3     1  UNL1        0.0340
     24 C         139.1083  141.0794  160.8816 C.ar    1  UNL1        0.0108
     25 C         139.0625  139.6550  160.4136 C.ar    1  UNL1        0.0958
     26 N         138.6889  139.3434  158.9947 N.ar    1  UNL1       -0.2426
     27 C         138.3611  140.4561  158.0437 C.ar    1  UNL1        0.1001
     28 C         138.4070  141.8805  158.5117 C.ar    1  UNL1        0.0350
     29 C         138.7806  142.1921  159.9306 C.ar    1  UNL1        0.0494
@<TRIPOS>BOND
     1    23    24    1
     2    24    25   ar
     3    25    26   ar
     4    26    27   ar
     5    27    28   ar
     6    28    29   ar
     7    29    19    1
     8    19    20   am
     9    20    21    2
    10    20    18    1
    11    18    17    1
    12    17     1    1
    13     1     2   ar
    14     2     3   ar
    15     3     4   ar
    16     4     7    1
    17     7     8    2
    18     7     9    1
    19     9    10   ar
    20    10    11   ar
    21    11    12    1
    22    11    13   ar
    23    13    14   ar
    24    14    15   ar
    25    15    16    1
    26     4     5   ar
    27     5     6   ar
    28    29    24   ar
    29     6     1   ar
    30    15     9   ar
    31    19    22    1
@<TRIPOS>MOLECULE
*****
 29 31 0 0 0
SMALL
GASTEIGER

@<TRIPOS>ATOM
      1 C         137.9057  141.9293  162.3231 C.ar    1  UNL1        0.1393
      2 C         138.0254  142.6251  163.6466 C.ar    1  UNL1        0.0370
      3 C         138.2764  141.8286  164.8927 C.ar    1  UNL1        0.0063
      4 C         138.4078  140.3364  164.8152 C.ar    1  UNL1        0.0392
      5 C         138.2881  139.6406  163.4917 C.ar    1  UNL1        0.0063
      6 C         138.0370  140.4371  162.2457 C.ar    1  UNL1        0.0370
      7 C         138.6588  139.5399  166.0612 C.2     1  UNL1        0.1961
      8 O         137.5356  138.7842  166.7074 O.2     1  UNL1       -0.2866
      9 C         140.0330  139.4991  166.6611 C.ar    1  UNL1        0.0460
     10 C         141.2035  139.0715  165.8262 C.ar    1  UNL1        0.0151
     11 C         142.5777  139.0306  166.4262 C.ar    1  UNL1        0.0578
     12 CL        143.7481  138.6030  165.5913 Cl      1  UNL1       -0.0822
     13 C         142.7814  139.4175  167.8610 C.ar    1  UNL1        0.0119
     14 C         141.6109  139.8452  168.6960 C.ar    1  UNL1        0.0077
     15 C         140.2367  139.8860  168.0960 C.ar    1  UNL1        0.0377
     16 BR        139.0663  140.3136  168.9310 Br      1  UNL1       -0.0489
     17 O         137.6546  142.7258  161.0771 O.3     1  UNL1       -0.4656
     18 C         138.7965  143.0825  160.1722 C.3     1  UNL1        0.2897
     19 N         141.1249  143.3821  161.2853 N.am    1  UNL1       -0.2810
     20 C         140.1739  142.5642  160.4628 C.2     1  UNL1        0.2707
     21 O         140.6001  141.2281  159.9308 O.2     1  UNL1       -0.2707
     22 H         140.8451  144.2590  161.6345 H       1  UNL1        0.1550
     23 C         141.7157  142.0924  163.9287 C.3     1  UNL1        0.0340
     24 C         142.7977  142.2190  162.8975 C.ar    1  UNL1        0.0108
     25 C         144.1750  141.7008  163.1880 C.ar    1  UNL1        0.0958
     26 N         145.2569  141.8274  162.1568 N.ar    1  UNL1       -0.2426
     27 C         144.9615  142.4722  160.8351 C.ar    1  UNL1        0.1001
     28 C         143.5842  142.9905  160.5447 C.ar    1  UNL1        0.0350
     29 C         142.5023  142.8638  161.5759 C.ar    1  UNL1        0.0494
@<TRIPOS>BOND
     1    23    24    1
     2    24    25   ar
     3    25    26   ar
     4    26    27   ar
     5    27    28   ar
     6    28    29   ar
     7    29    19    1
     8    19    20   am
     9    20    21    2
    10    20    18    1
    11    18    17    1
    12    17     1    1
    13     1     2   ar
    14     2     3   ar
    15     3     4   ar
    16     4     7    1
    17     7     8    2
    18     7     9    1
    19     9    10   ar
    20    10    11   ar
    21    11    12    1
    22    11    13   ar
    23    13    14   ar
    24    14    15   ar
    25    15    16    1
    26     4     5   ar
    27     5     6   ar
    28    29    24   ar
    29     6     1   ar
    30    15     9   ar
    31    19    22    1
@<TRIPOS>MOLECULE
*****
 29 31 0 0 0
SMALL
GASTEIGER

@<TRIPOS>ATOM
      1 C         138.6352  144.1361  163.3054 C.ar    1  UNL1        0.1393
      2 C         139.6306  144.0781  164.4260 C.ar    1  UNL1        0.0370
      3 C         139.7581  142.8326  165.2521 C.ar    1  UNL1        0.0063
      4 C         138.8902  141.6452  164.9577 C.ar    1  UNL1        0.0392
      5 C         137.8948  141.7032  163.8371 C.ar    1  UNL1        0.0063
      6 C         137.7673  142.9486  163.0109 C.ar    1  UNL1        0.0370
      7 C         139.0178  140.3998  165.7839 C.2     1  UNL1        0.1961
      8 O         137.8129  139.5444  166.0422 O.2     1  UNL1       -0.2866
      9 C         140.3502  140.0096  166.3518 C.ar    1  UNL1        0.0460
     10 C         141.4567  139.5742  165.4375 C.ar    1  UNL1        0.0151
     11 C         142.7891  139.1841  166.0054 C.ar    1  UNL1        0.0578
     12 CL        143.8957  138.7487  165.0911 Cl      1  UNL1       -0.0822
     13 C         143.0150  139.2293  167.4875 C.ar    1  UNL1        0.0119
     14 C         141.9084  139.6647  168.4019 C.ar    1  UNL1        0.0077
     15 C         140.5760  140.0548  167.8340 C.ar    1  UNL1        0.0377
     16 BR        139.4694  140.4902  168.7483 Br      1  UNL1       -0.0489
     17 O         138.5077  145.3816  162.4792 O.3     1  UNL1       -0.4656
     18 C         139.6832  145.8853  161.6954 C.3     1  UNL1        0.2897
     19 N         141.5442  145.4194  159.9433 N.am    1  UNL1       -0.2810
     20 C         140.2033  145.0943  160.5318 C.2     1  UNL1        0.2707
     21 O         139.3825  143.9783  159.9567 O.2     1  UNL1       -0.2707
     22 H         142.0830  146.1519  160.3208 H       1  UNL1        0.1550
     23 C         140.7514  146.1659  157.1479 C.3     1  UNL1        0.0340
     24 C         141.6679  145.0017  157.3820 C.ar    1  UNL1        0.0108
     25 C         142.1880  144.2108  156.2185 C.ar    1  UNL1        0.0958
     26 N         143.1045  143.0466  156.4526 N.ar    1  UNL1       -0.2426
     27 C         143.5009  142.6734  157.8502 C.ar    1  UNL1        0.1001
     28 C         142.9808  143.4643  159.0138 C.ar    1  UNL1        0.0350
     29 C         142.0643  144.6285  158.7797 C.ar    1  UNL1        0.0494
@<TRIPOS>BOND
     1    23    24    1
     2    24    25   ar
     3    25    26   ar
     4    26    27   ar
     5    27    28   ar
     6    28    29   ar
     7    29    19    1
     8    19    20   am
     9    20    21    2
    10    20    18    1
    11    18    17    1
    12    17     1    1
    13     1     2   ar
    14     2     3   ar
    15     3     4   ar
    16     4     7    1
    17     7     8    2
    18     7     9    1
    19     9    10   ar
    20    10    11   ar
    21    11    12    1
    22    11    13   ar
    23    13    14   ar
    24    14    15   ar
    25    15    16    1
    26     4     5   ar
    27     5     6   ar
    28    29    24   ar
    29     6     1   ar
    30    15     9   ar
    31    19    22    1
@<TRIPOS>MOLECULE
*****
 29 31 0 0 0
SMALL
GASTEIGER

@<TRIPOS>ATOM
      1 C         141.2906  144.5483  163.8856 C.ar    1  UNL1        0.1393
      2 C         140.1638  144.1608  164.7968 C.ar    1  UNL1        0.0370
      3 C         140.2565  142.9050  165.6121 C.ar    1  UNL1        0.0063
      4 C         141.4759  142.0368  165.5160 C.ar    1  UNL1        0.0392
      5 C         142.6026  142.4243  164.6048 C.ar    1  UNL1        0.0063
      6 C         142.5100  143.6800  163.7896 C.ar    1  UNL1        0.0370
      7 C         141.5685  140.7811  166.3312 C.2     1  UNL1        0.1961
      8 O         142.6091  140.6588  167.4048 O.2     1  UNL1       -0.2866
      9 C         140.6207  139.6476  166.0729 C.ar    1  UNL1        0.0460
     10 C         139.3442  139.5445  166.8539 C.ar    1  UNL1        0.0151
     11 C         138.3964  138.4110  166.5956 C.ar    1  UNL1        0.0578
     12 CL        137.1199  138.3080  167.3765 Cl      1  UNL1       -0.0822
     13 C         138.7250  137.3805  165.5564 C.ar    1  UNL1        0.0119
     14 C         140.0015  137.4835  164.7754 C.ar    1  UNL1        0.0077
     15 C         140.9494  138.6170  165.0336 C.ar    1  UNL1        0.0377
     16 BR        142.2259  138.7201  164.2527 Br      1  UNL1       -0.0489
     17 O         141.1979  145.8040  163.0705 O.3     1  UNL1       -0.4656
     18 C         140.1664  145.9208  161.9877 C.3     1  UNL1        0.2897
     19 N         140.1250  143.8205  160.4590 N.am    1  UNL1       -0.2810
     20 C         139.4651  144.6941  161.4844 C.2     1  UNL1        0.2707
     21 O         138.1040  144.3409  162.0064 O.2     1  UNL1       -0.2707
     22 H         141.0184  144.0523  160.1164 H       1  UNL1        0.1550
     23 C         140.1985  141.2862  162.0628 C.3     1  UNL1        0.0340
     24 C         139.4604  141.3266  160.7575 C.ar    1  UNL1        0.0108
     25 C         138.7592  140.0999  160.2542 C.ar    1  UNL1        0.0958
     26 N         138.0211  140.1404  158.9489 N.ar    1  UNL1       -0.2426
     27 C         137.9844  141.4075  158.1471 C.ar    1  UNL1        0.1001
     28 C         138.6856  142.6341  158.6504 C.ar    1  UNL1        0.0350
     29 C         139.4237  142.5937  159.9557 C.ar    1  UNL1        0.0494
@<TRIPOS>BOND
     1    23    24    1
     2    24    25   ar
     3    25    26   ar
     4    26    27   ar
     5    27    28   ar
     6    28    29   ar
     7    29    19    1
     8    19    20   am
     9    20    21    2
    10    20    18    1
    11    18    17    1
    12    17     1    1
    13     1     2   ar
    14     2     3   ar
    15     3     4   ar
    16     4     7    1
    17     7     8    2
    18     7     9    1
    19     9    10   ar
    20    10    11   ar
    21    11    12    1
    22    11    13   ar
    23    13    14   ar
    24    14    15   ar
    25    15    16    1
    26     4     5   ar
    27     5     6   ar
    28    29    24   ar
    29     6     1   ar
    30    15     9   ar
    31    19    22    1
