@<TRIPOS>MOLECULE
*****
 42 47 0 0 0
SMALL
GASTEIGER

@<TRIPOS>ATOM
      1 C         137.9758  140.0945  161.8283 C.3     1  UNL1        0.0570
      2 C         137.7555  140.3292  163.2933 C.3     1  UNL1        0.0331
      3 C         137.7150  141.7291  163.8309 C.3     1  UNL1        0.0735
      4 N         137.8948  142.8941  162.9033 N.3     1  UNL1       -0.2710
      5 C         138.1151  142.6593  161.4382 C.3     1  UNL1        0.0735
      6 C         138.1556  141.2595  160.9007 C.3     1  UNL1        0.0331
      7 N         138.0163  138.6947  161.2908 N.3     1  UNL1       -0.2934
      8 H         137.5734  138.0981  161.9896 H       1  UNL1        0.1236
      9 C         139.3320  138.0597  160.9504 C.3     1  UNL1        0.1152
     10 O         145.9797  141.7343  162.6982 O.2     1  UNL1       -0.2707
     11 C         144.9444  140.6983  163.0215 C.2     1  UNL1        0.2718
     12 C         145.0895  139.8510  164.2507 C.3     1  UNL1        0.2898
     13 O         144.0541  138.8149  164.5741 O.3     1  UNL1       -0.4628
     14 C         142.8736  138.6261  163.6682 C.ar    1  UNL1        0.1708
     15 C         141.8382  137.5900  163.9915 C.ar    1  UNL1        0.0411
     16 C         140.6577  137.4012  163.0856 C.ar    1  UNL1        0.0193
     17 C         140.5125  138.2485  161.8563 C.ar    1  UNL1        0.0765
     18 N         141.5479  139.2846  161.5330 N.ar    1  UNL1       -0.2304
     19 C         142.7285  139.4734  162.4390 C.ar    1  UNL1        0.1682
     20 N         143.7638  140.5095  162.1157 N.am    1  UNL1       -0.2639
     21 H         143.6686  141.0656  161.3089 H       1  UNL1        0.1565
     22 C         137.8542  144.2939  163.4408 C.3     1  UNL1        0.0970
     23 C         138.8832  144.7458  164.4342 C.3     1  UNL1        0.1264
     24 N         140.3397  144.5065  164.1670 N.ar    1  UNL1       -0.2926
     25 C         141.0217  145.2185  163.0366 C.ar    1  UNL1        0.2611
     26 O         140.2472  146.1699  162.1734 O.2     1  UNL1       -0.2670
     27 C         142.4781  144.9792  162.7694 C.ar    1  UNL1        0.0623
     28 C         143.2527  144.0279  163.6326 C.ar    1  UNL1        0.0255
     29 C         142.5707  143.3158  164.7630 C.ar    1  UNL1        0.0975
     30 N         143.3451  142.3645  165.6262 N.ar    1  UNL1       -0.2392
     31 C         142.6631  141.6524  166.7566 C.ar    1  UNL1        0.1363
     32 C         141.2067  141.8917  167.0238 C.ar    1  UNL1        0.1659
     33 C         140.4322  142.8431  166.1606 C.ar    1  UNL1        0.0579
     34 C         141.1141  143.5551  165.0302 C.ar    1  UNL1        0.0832
     35 O         140.5247  141.1797  168.1543 O.3     1  UNL1       -0.4502
     36 C         139.4821  140.1404  167.8659 C.ar    1  UNL1        0.1667
     37 C         138.4694  139.7832  168.9131 C.ar    1  UNL1        0.1364
     38 N         137.4268  138.7440  168.6247 N.ar    1  UNL1       -0.2368
     39 C         137.3970  138.0620  167.2890 C.ar    1  UNL1        0.1286
     40 C         138.4098  138.4193  166.2418 C.ar    1  UNL1        0.1623
     41 F         138.3800  137.7373  164.9061 F       1  UNL1       -0.2024
     42 C         139.4523  139.4584  166.5302 C.ar    1  UNL1        0.0703
@<TRIPOS>BOND
     1    10    11    2
     2    11    12    1
     3    12    13    1
     4    13    14    1
     5    14    15   ar
     6    15    16   ar
     7    16    17   ar
     8    17     9    1
     9     9     7    1
    10     7     1    1
    11     1     2    1
    12     2     3    1
    13     3     4    1
    14     4    22    1
    15    22    23    1
    16    23    24    1
    17    24    25   ar
    18    25    26    2
    19    25    27   ar
    20    27    28   ar
    21    28    29   ar
    22    29    30   ar
    23    30    31   ar
    24    31    32   ar
    25    32    35    1
    26    35    36    1
    27    36    37   ar
    28    37    38   ar
    29    38    39   ar
    30    39    40   ar
    31    40    41    1
    32    40    42   ar
    33    32    33   ar
    34    33    34   ar
    35     4     5    1
    36     5     6    1
    37    17    18   ar
    38    18    19   ar
    39    19    20    1
    40    20    11   am
    41    19    14   ar
    42     6     1    1
    43    34    24   ar
    44    34    29   ar
    45    42    36   ar
    46     7     8    1
    47    20    21    1
@<TRIPOS>MOLECULE
*****
 42 47 0 0 0
SMALL
GASTEIGER

@<TRIPOS>ATOM
      1 C         144.0229  139.6198  163.3128 C.3     1  UNL1        0.0570
      2 C         143.1500  138.9231  162.3116 C.3     1  UNL1        0.0331
      3 C         141.8932  138.2381  162.7604 C.3     1  UNL1        0.0735
      4 N         141.5094  138.2499  164.2104 N.3     1  UNL1       -0.2710
      5 C         142.3824  138.9467  165.2117 C.3     1  UNL1        0.0735
      6 C         143.6391  139.6317  164.7628 C.3     1  UNL1        0.0331
      7 N         145.2796  140.3048  162.8640 N.3     1  UNL1       -0.2934
      8 H         146.0593  139.7692  163.2456 H       1  UNL1        0.1236
      9 C         145.5219  141.7401  163.2262 C.3     1  UNL1        0.1152
     10 O         139.6947  144.8277  159.0716 O.2     1  UNL1       -0.2707
     11 C         140.5334  144.8044  160.3151 C.2     1  UNL1        0.2718
     12 C         140.2682  145.7868  161.4171 C.3     1  UNL1        0.2898
     13 O         141.1068  145.7634  162.6605 O.3     1  UNL1       -0.4628
     14 C         142.2106  144.7576  162.8020 C.ar    1  UNL1        0.1708
     15 C         143.0492  144.7342  164.0454 C.ar    1  UNL1        0.0411
     16 C         144.1530  143.7284  164.1869 C.ar    1  UNL1        0.0193
     17 C         144.4181  142.7459  163.0848 C.ar    1  UNL1        0.0765
     18 N         143.5795  142.7693  161.8413 N.ar    1  UNL1       -0.2304
     19 C         142.4757  143.7752  161.6999 C.ar    1  UNL1        0.1682
     20 N         141.6371  143.7986  160.4565 N.am    1  UNL1       -0.2639
     21 H         141.8111  143.1537  159.7332 H       1  UNL1        0.1565
     22 C         140.2527  137.5650  164.6592 C.3     1  UNL1        0.0970
     23 C         138.9834  138.3500  164.8094 C.3     1  UNL1        0.1264
     24 N         138.6959  139.4952  163.8843 N.ar    1  UNL1       -0.2926
     25 C         138.1199  139.2342  162.5241 C.ar    1  UNL1        0.2611
     26 O         137.8314  137.8278  162.0891 O.2     1  UNL1       -0.2670
     27 C         137.8323  140.3793  161.5990 C.ar    1  UNL1        0.0623
     28 C         138.1208  141.7856  162.0340 C.ar    1  UNL1        0.0255
     29 C         138.6968  142.0467  163.3942 C.ar    1  UNL1        0.0975
     30 N         138.9853  143.4529  163.8292 N.ar    1  UNL1       -0.2392
     31 C         139.5613  143.7139  165.1894 C.ar    1  UNL1        0.1363
     32 C         139.8488  142.5688  166.1145 C.ar    1  UNL1        0.1659
     33 C         139.5603  141.1625  165.6795 C.ar    1  UNL1        0.0579
     34 C         138.9843  140.9014  164.3193 C.ar    1  UNL1        0.0832
     35 O         140.4248  142.8298  167.4747 O.3     1  UNL1       -0.4502
     36 C         140.9400  141.6898  168.3024 C.ar    1  UNL1        0.1667
     37 C         142.3181  141.1495  168.0597 C.ar    1  UNL1        0.1364
     38 N         142.8333  140.0095  168.8874 N.ar    1  UNL1       -0.2368
     39 C         141.9704  139.4099  169.9578 C.ar    1  UNL1        0.1286
     40 C         140.5922  139.9502  170.2005 C.ar    1  UNL1        0.1623
     41 F         139.7293  139.3506  171.2709 F       1  UNL1       -0.2024
     42 C         140.0771  141.0902  169.3728 C.ar    1  UNL1        0.0703
@<TRIPOS>BOND
     1    10    11    2
     2    11    12    1
     3    12    13    1
     4    13    14    1
     5    14    15   ar
     6    15    16   ar
     7    16    17   ar
     8    17     9    1
     9     9     7    1
    10     7     1    1
    11     1     2    1
    12     2     3    1
    13     3     4    1
    14     4    22    1
    15    22    23    1
    16    23    24    1
    17    24    25   ar
    18    25    26    2
    19    25    27   ar
    20    27    28   ar
    21    28    29   ar
    22    29    30   ar
    23    30    31   ar
    24    31    32   ar
    25    32    35    1
    26    35    36    1
    27    36    37   ar
    28    37    38   ar
    29    38    39   ar
    30    39    40   ar
    31    40    41    1
    32    40    42   ar
    33    32    33   ar
    34    33    34   ar
    35     4     5    1
    36     5     6    1
    37    17    18   ar
    38    18    19   ar
    39    19    20    1
    40    20    11   am
    41    19    14   ar
    42     6     1    1
    43    34    24   ar
    44    34    29   ar
    45    42    36   ar
    46     7     8    1
    47    20    21    1
@<TRIPOS>MOLECULE
*****
 42 47 0 0 0
SMALL
GASTEIGER

@<TRIPOS>ATOM
      1 C         142.1868  144.5397  163.4082 C.3     1  UNL1        0.0570
      2 C         143.1990  144.0443  162.4183 C.3     1  UNL1        0.0331
      3 C         143.9420  142.7678  162.6802 C.3     1  UNL1        0.0735
      4 N         143.6727  141.9867  163.9322 N.3     1  UNL1       -0.2710
      5 C         142.6605  142.4821  164.9222 C.3     1  UNL1        0.0735
      6 C         141.9175  143.7586  164.6602 C.3     1  UNL1        0.0331
      7 N         141.4439  145.8162  163.1462 N.3     1  UNL1       -0.2934
      8 H         141.2453  146.2332  164.0556 H       1  UNL1        0.1236
      9 C         140.1485  145.7884  162.3903 C.3     1  UNL1        0.1152
     10 O         138.7681  139.2731  158.3412 O.2     1  UNL1       -0.2707
     11 C         138.4854  140.1526  159.5230 C.2     1  UNL1        0.2718
     12 C         137.4598  139.7399  160.5368 C.3     1  UNL1        0.2898
     13 O         137.1771  140.6194  161.7185 O.3     1  UNL1       -0.4628
     14 C         137.9199  141.9117  161.8865 C.ar    1  UNL1        0.1708
     15 C         137.6372  142.7912  163.0682 C.ar    1  UNL1        0.0411
     16 C         138.3801  144.0834  163.2362 C.ar    1  UNL1        0.0193
     17 C         139.4057  144.4962  162.2224 C.ar    1  UNL1        0.0765
     18 N         139.6884  143.6167  161.0406 N.ar    1  UNL1       -0.2304
     19 C         138.9455  142.3244  160.8727 C.ar    1  UNL1        0.1682
     20 N         139.2282  141.4449  159.6909 N.am    1  UNL1       -0.2639
     21 H         139.9013  141.7158  159.0255 H       1  UNL1        0.1565
     22 C         144.4156  140.7102  164.1942 C.3     1  UNL1        0.0970
     23 C         143.6785  139.5020  164.6908 C.3     1  UNL1        0.1264
     24 N         142.5067  138.9691  163.9207 N.ar    1  UNL1       -0.2926
     25 C         142.7043  138.4210  162.5385 C.ar    1  UNL1        0.2611
     26 O         144.0737  138.4057  161.9264 O.2     1  UNL1       -0.2670
     27 C         141.5325  137.8882  161.7684 C.ar    1  UNL1        0.0623
     28 C         140.1631  137.9035  162.3805 C.ar    1  UNL1        0.0255
     29 C         139.9656  138.4517  163.7627 C.ar    1  UNL1        0.0975
     30 N         138.5963  138.4670  164.3748 N.ar    1  UNL1       -0.2392
     31 C         138.3987  139.0151  165.7570 C.ar    1  UNL1        0.1363
     32 C         139.5704  139.5479  166.5271 C.ar    1  UNL1        0.1659
     33 C         140.9398  139.5326  165.9150 C.ar    1  UNL1        0.0579
     34 C         141.1374  138.9845  164.5328 C.ar    1  UNL1        0.0832
     35 O         139.3729  140.0961  167.9094 O.3     1  UNL1       -0.4502
     36 C         140.5295  140.7008  168.6488 C.ar    1  UNL1        0.1667
     37 C         140.8077  142.1702  168.5334 C.ar    1  UNL1        0.1364
     38 N         141.9644  142.7749  169.2728 N.ar    1  UNL1       -0.2368
     39 C         142.8426  141.9101  170.1276 C.ar    1  UNL1        0.1286
     40 C         142.5643  140.4406  170.2430 C.ar    1  UNL1        0.1623
     41 F         143.4426  139.5758  171.0979 F       1  UNL1       -0.2024
     42 C         141.4078  139.8360  169.5036 C.ar    1  UNL1        0.0703
@<TRIPOS>BOND
     1    10    11    2
     2    11    12    1
     3    12    13    1
     4    13    14    1
     5    14    15   ar
     6    15    16   ar
     7    16    17   ar
     8    17     9    1
     9     9     7    1
    10     7     1    1
    11     1     2    1
    12     2     3    1
    13     3     4    1
    14     4    22    1
    15    22    23    1
    16    23    24    1
    17    24    25   ar
    18    25    26    2
    19    25    27   ar
    20    27    28   ar
    21    28    29   ar
    22    29    30   ar
    23    30    31   ar
    24    31    32   ar
    25    32    35    1
    26    35    36    1
    27    36    37   ar
    28    37    38   ar
    29    38    39   ar
    30    39    40   ar
    31    40    41    1
    32    40    42   ar
    33    32    33   ar
    34    33    34   ar
    35     4     5    1
    36     5     6    1
    37    17    18   ar
    38    18    19   ar
    39    19    20    1
    40    20    11   am
    41    19    14   ar
    42     6     1    1
    43    34    24   ar
    44    34    29   ar
    45    42    36   ar
    46     7     8    1
    47    20    21    1
@<TRIPOS>MOLECULE
*****
 42 47 0 0 0
SMALL
GASTEIGER

@<TRIPOS>ATOM
      1 C         143.2116  143.2397  164.2740 C.3     1  UNL1        0.0570
      2 C         142.6532  143.9521  163.0779 C.3     1  UNL1        0.0331
      3 C         141.1862  144.2559  163.0032 C.3     1  UNL1        0.0735
      4 N         140.2776  143.8472  164.1246 N.3     1  UNL1       -0.2710
      5 C         140.8360  143.1348  165.3207 C.3     1  UNL1        0.0735
      6 C         142.3030  142.8311  165.3954 C.3     1  UNL1        0.0331
      7 N         144.6786  142.9360  164.3487 N.3     1  UNL1       -0.2934
      8 H         145.1308  143.4861  163.6184 H       1  UNL1        0.1236
      9 C         145.1614  141.5247  164.1894 C.3     1  UNL1        0.1152
     10 O         143.4375  138.8485  157.0749 O.2     1  UNL1       -0.2707
     11 C         143.2633  138.7869  158.5635 C.2     1  UNL1        0.2718
     12 C         142.3402  137.7715  159.1691 C.3     1  UNL1        0.2898
     13 O         142.1659  137.7098  160.6577 O.3     1  UNL1       -0.4628
     14 C         142.9148  138.6635  161.5406 C.ar    1  UNL1        0.1708
     15 C         142.7405  138.6019  163.0292 C.ar    1  UNL1        0.0411
     16 C         143.4894  139.5556  163.9121 C.ar    1  UNL1        0.0193
     17 C         144.4126  140.5710  163.3065 C.ar    1  UNL1        0.0765
     18 N         144.5868  140.6327  161.8179 N.ar    1  UNL1       -0.2304
     19 C         143.8379  139.6789  160.9350 C.ar    1  UNL1        0.1682
     20 N         144.0121  139.7406  159.4464 N.am    1  UNL1       -0.2639
     21 H         144.6180  140.4070  159.0489 H       1  UNL1        0.1565
     22 C         138.8106  144.1510  164.0499 C.3     1  UNL1        0.0970
     23 C         137.8165  143.0313  163.9604 C.3     1  UNL1        0.1264
     24 N         138.1515  141.7909  163.1863 N.ar    1  UNL1       -0.2926
     25 C         138.2503  141.8441  161.6905 C.ar    1  UNL1        0.2611
     26 O         138.0140  143.1378  160.9688 O.2     1  UNL1       -0.2670
     27 C         138.5854  140.6038  160.9164 C.ar    1  UNL1        0.0623
     28 C         138.8216  139.3101  161.6380 C.ar    1  UNL1        0.0255
     29 C         138.7229  139.2569  163.1338 C.ar    1  UNL1        0.0975
     30 N         138.9591  137.9634  163.8555 N.ar    1  UNL1       -0.2392
     31 C         138.8604  137.9101  165.3513 C.ar    1  UNL1        0.1363
     32 C         138.5253  139.1504  166.1254 C.ar    1  UNL1        0.1659
     33 C         138.2890  140.4441  165.4038 C.ar    1  UNL1        0.0579
     34 C         138.3878  140.4973  163.9080 C.ar    1  UNL1        0.0832
     35 O         138.4265  139.0972  167.6212 O.3     1  UNL1       -0.4502
     36 C         139.3736  139.8986  168.4644 C.ar    1  UNL1        0.1667
     37 C         138.9340  140.4140  169.8027 C.ar    1  UNL1        0.1364
     38 N         139.8811  141.2154  170.6458 N.ar    1  UNL1       -0.2368
     39 C         141.2678  141.5013  170.1506 C.ar    1  UNL1        0.1286
     40 C         141.7075  140.9859  168.8123 C.ar    1  UNL1        0.1623
     41 F         143.0942  141.2718  168.3171 F       1  UNL1       -0.2024
     42 C         140.7604  140.1845  167.9692 C.ar    1  UNL1        0.0703
@<TRIPOS>BOND
     1    10    11    2
     2    11    12    1
     3    12    13    1
     4    13    14    1
     5    14    15   ar
     6    15    16   ar
     7    16    17   ar
     8    17     9    1
     9     9     7    1
    10     7     1    1
    11     1     2    1
    12     2     3    1
    13     3     4    1
    14     4    22    1
    15    22    23    1
    16    23    24    1
    17    24    25   ar
    18    25    26    2
    19    25    27   ar
    20    27    28   ar
    21    28    29   ar
    22    29    30   ar
    23    30    31   ar
    24    31    32   ar
    25    32    35    1
    26    35    36    1
    27    36    37   ar
    28    37    38   ar
    29    38    39   ar
    30    39    40   ar
    31    40    41    1
    32    40    42   ar
    33    32    33   ar
    34    33    34   ar
    35     4     5    1
    36     5     6    1
    37    17    18   ar
    38    18    19   ar
    39    19    20    1
    40    20    11   am
    41    19    14   ar
    42     6     1    1
    43    34    24   ar
    44    34    29   ar
    45    42    36   ar
    46     7     8    1
    47    20    21    1
@<TRIPOS>MOLECULE
*****
 42 47 0 0 0
SMALL
GASTEIGER

@<TRIPOS>ATOM
      1 C         142.1441  138.0040  163.1493 C.3     1  UNL1        0.0570
      2 C         142.4654  138.3891  164.5630 C.3     1  UNL1        0.0331
      3 C         143.6030  139.3252  164.8453 C.3     1  UNL1        0.0735
      4 N         144.4194  139.8760  163.7139 N.3     1  UNL1       -0.2710
      5 C         144.0981  139.4908  162.3002 C.3     1  UNL1        0.0735
      6 C         142.9605  138.5548  162.0179 C.3     1  UNL1        0.0331
      7 N         141.0065  137.0680  162.8671 N.3     1  UNL1       -0.2934
      8 H         141.2979  136.4767  162.0887 H       1  UNL1        0.1236
      9 C         139.6553  137.6149  162.5133 C.3     1  UNL1        0.1152
     10 O         138.7918  145.3276  161.7932 O.2     1  UNL1       -0.2707
     11 C         138.6316  144.0721  162.5981 C.2     1  UNL1        0.2718
     12 C         138.0233  144.1318  163.9679 C.3     1  UNL1        0.2898
     13 O         137.8630  142.8763  164.7728 O.3     1  UNL1       -0.4628
     14 C         138.3111  141.5610  164.2079 C.ar    1  UNL1        0.1708
     15 C         138.1508  140.3054  165.0128 C.ar    1  UNL1        0.0411
     16 C         138.5989  138.9901  164.4480 C.ar    1  UNL1        0.0193
     17 C         139.2072  138.9303  163.0781 C.ar    1  UNL1        0.0765
     18 N         139.3675  140.1858  162.2732 N.ar    1  UNL1       -0.2304
     19 C         138.9194  141.5012  162.8381 C.ar    1  UNL1        0.1682
     20 N         139.0797  142.7568  162.0332 N.am    1  UNL1       -0.2639
     21 H         139.4789  142.7175  161.1342 H       1  UNL1        0.1565
     22 C         145.5570  140.8120  163.9961 C.3     1  UNL1        0.0970
     23 C         145.6898  142.0872  163.2175 C.3     1  UNL1        0.1264
     24 N         144.5268  143.0293  163.1170 N.ar    1  UNL1       -0.2926
     25 C         144.0239  143.7333  164.3423 C.ar    1  UNL1        0.2611
     26 O         144.6840  143.4953  165.6681 O.2     1  UNL1       -0.2670
     27 C         142.8610  144.6753  164.2419 C.ar    1  UNL1        0.0623
     28 C         142.2009  144.9134  162.9160 C.ar    1  UNL1        0.0255
     29 C         142.7038  144.2093  161.6907 C.ar    1  UNL1        0.0975
     30 N         142.0438  144.4473  160.3650 N.ar    1  UNL1       -0.2392
     31 C         142.5467  143.7433  159.1396 C.ar    1  UNL1        0.1363
     32 C         143.7097  142.8013  159.2401 C.ar    1  UNL1        0.1659
     33 C         144.3697  142.5632  160.5659 C.ar    1  UNL1        0.0579
     34 C         143.8668  143.2673  161.7912 C.ar    1  UNL1        0.0832
     35 O         144.2126  142.0972  158.0147 O.3     1  UNL1       -0.4502
     36 C         143.7572  140.7003  157.7123 C.ar    1  UNL1        0.1667
     37 C         144.3382  139.9581  156.5455 C.ar    1  UNL1        0.1364
     38 N         143.8828  138.5612  156.2431 N.ar    1  UNL1       -0.2368
     39 C         142.8464  137.9066  157.1076 C.ar    1  UNL1        0.1286
     40 C         142.2653  138.6489  158.2744 C.ar    1  UNL1        0.1623
     41 F         141.2289  137.9943  159.1389 F       1  UNL1       -0.2024
     42 C         142.7207  140.0457  158.5768 C.ar    1  UNL1        0.0703
@<TRIPOS>BOND
     1    10    11    2
     2    11    12    1
     3    12    13    1
     4    13    14    1
     5    14    15   ar
     6    15    16   ar
     7    16    17   ar
     8    17     9    1
     9     9     7    1
    10     7     1    1
    11     1     2    1
    12     2     3    1
    13     3     4    1
    14     4    22    1
    15    22    23    1
    16    23    24    1
    17    24    25   ar
    18    25    26    2
    19    25    27   ar
    20    27    28   ar
    21    28    29   ar
    22    29    30   ar
    23    30    31   ar
    24    31    32   ar
    25    32    35    1
    26    35    36    1
    27    36    37   ar
    28    37    38   ar
    29    38    39   ar
    30    39    40   ar
    31    40    41    1
    32    40    42   ar
    33    32    33   ar
    34    33    34   ar
    35     4     5    1
    36     5     6    1
    37    17    18   ar
    38    18    19   ar
    39    19    20    1
    40    20    11   am
    41    19    14   ar
    42     6     1    1
    43    34    24   ar
    44    34    29   ar
    45    42    36   ar
    46     7     8    1
    47    20    21    1
@<TRIPOS>MOLECULE
*****
 42 47 0 0 0
SMALL
GASTEIGER

@<TRIPOS>ATOM
      1 C         143.9553  139.5990  162.6637 C.3     1  UNL1        0.0570
      2 C         143.5489  139.1269  164.0282 C.3     1  UNL1        0.0331
      3 C         142.2790  138.3484  164.2052 C.3     1  UNL1        0.0735
      4 N         141.4155  138.0420  163.0175 N.3     1  UNL1       -0.2710
      5 C         141.8219  138.5142  161.6529 C.3     1  UNL1        0.0735
      6 C         143.0918  139.2926  161.4761 C.3     1  UNL1        0.0331
      7 N         145.2252  140.3775  162.4869 N.3     1  UNL1       -0.2934
      8 H         145.9766  139.8073  162.8752 H       1  UNL1        0.1236
      9 C         145.3590  141.7424  163.0946 C.3     1  UNL1        0.1152
     10 O         139.9874  145.7621  159.1275 O.2     1  UNL1       -0.2707
     11 C         140.6142  145.3684  160.4322 C.2     1  UNL1        0.2718
     12 C         140.0773  145.9210  161.7192 C.3     1  UNL1        0.2898
     13 O         140.7041  145.5274  163.0238 O.3     1  UNL1       -0.4628
     14 C         141.8678  144.5812  163.0415 C.ar    1  UNL1        0.1708
     15 C         142.4946  144.1875  164.3462 C.ar    1  UNL1        0.0411
     16 C         143.6583  143.2413  164.3639 C.ar    1  UNL1        0.0193
     17 C         144.1953  142.6886  163.0769 C.ar    1  UNL1        0.0765
     18 N         143.5685  143.0823  161.7722 N.ar    1  UNL1       -0.2304
     19 C         142.4047  144.0286  161.7546 C.ar    1  UNL1        0.1682
     20 N         141.7779  144.4222  160.4499 N.am    1  UNL1       -0.2639
     21 H         142.1303  144.0595  159.6052 H       1  UNL1        0.1565
     22 C         140.1456  137.2635  163.1944 C.3     1  UNL1        0.0970
     23 C         138.8623  137.9800  163.4940 C.3     1  UNL1        0.1264
     24 N         138.7778  139.4684  163.3278 N.ar    1  UNL1       -0.2926
     25 C         138.3060  140.0525  162.0292 C.ar    1  UNL1        0.2611
     26 O         137.9188  139.1481  160.8968 O.2     1  UNL1       -0.2670
     27 C         138.2215  141.5408  161.8630 C.ar    1  UNL1        0.0623
     28 C         138.6087  142.4452  162.9954 C.ar    1  UNL1        0.0255
     29 C         139.0805  141.8611  164.2940 C.ar    1  UNL1        0.0975
     30 N         139.4677  142.7653  165.4263 N.ar    1  UNL1       -0.2392
     31 C         139.9395  142.1813  166.7249 C.ar    1  UNL1        0.1363
     32 C         140.0240  140.6930  166.8911 C.ar    1  UNL1        0.1659
     33 C         139.6368  139.7886  165.7587 C.ar    1  UNL1        0.0579
     34 C         139.1650  140.3727  164.4601 C.ar    1  UNL1        0.0832
     35 O         140.4958  140.1089  168.1897 O.3     1  UNL1       -0.4502
     36 C         141.2101  140.9739  169.1856 C.ar    1  UNL1        0.1667
     37 C         140.5014  141.4322  170.4255 C.ar    1  UNL1        0.1364
     38 N         141.2157  142.2972  171.4214 N.ar    1  UNL1       -0.2368
     39 C         142.6387  142.7037  171.1772 C.ar    1  UNL1        0.1286
     40 C         143.3475  142.2453  169.9372 C.ar    1  UNL1        0.1623
     41 F         144.7705  142.6519  169.6930 F       1  UNL1       -0.2024
     42 C         142.6332  141.3804  168.9414 C.ar    1  UNL1        0.0703
@<TRIPOS>BOND
     1    10    11    2
     2    11    12    1
     3    12    13    1
     4    13    14    1
     5    14    15   ar
     6    15    16   ar
     7    16    17   ar
     8    17     9    1
     9     9     7    1
    10     7     1    1
    11     1     2    1
    12     2     3    1
    13     3     4    1
    14     4    22    1
    15    22    23    1
    16    23    24    1
    17    24    25   ar
    18    25    26    2
    19    25    27   ar
    20    27    28   ar
    21    28    29   ar
    22    29    30   ar
    23    30    31   ar
    24    31    32   ar
    25    32    35    1
    26    35    36    1
    27    36    37   ar
    28    37    38   ar
    29    38    39   ar
    30    39    40   ar
    31    40    41    1
    32    40    42   ar
    33    32    33   ar
    34    33    34   ar
    35     4     5    1
    36     5     6    1
    37    17    18   ar
    38    18    19   ar
    39    19    20    1
    40    20    11   am
    41    19    14   ar
    42     6     1    1
    43    34    24   ar
    44    34    29   ar
    45    42    36   ar
    46     7     8    1
    47    20    21    1
@<TRIPOS>MOLECULE
*****
 42 47 0 0 0
SMALL
GASTEIGER

@<TRIPOS>ATOM
      1 C         137.8206  143.1040  162.5617 C.3     1  UNL1        0.0570
      2 C         138.0365  142.4198  161.2445 C.3     1  UNL1        0.0331
      3 C         138.1337  140.9242  161.1832 C.3     1  UNL1        0.0735
      4 N         138.0149  140.1128  162.4392 N.3     1  UNL1       -0.2710
      5 C         137.7989  140.7971  163.7565 C.3     1  UNL1        0.0735
      6 C         137.7017  142.2927  163.8177 C.3     1  UNL1        0.0331
      7 N         137.7234  144.5996  162.6229 N.3     1  UNL1       -0.2934
      8 H         137.2725  144.9010  161.7591 H       1  UNL1        0.1236
      9 C         138.9659  145.4264  162.7741 C.3     1  UNL1        0.1152
     10 O         145.1012  142.4910  158.9674 O.2     1  UNL1       -0.2707
     11 C         144.4010  142.8055  160.2561 C.2     1  UNL1        0.2718
     12 C         145.0457  142.4560  161.5646 C.3     1  UNL1        0.2898
     13 O         144.3454  142.7705  162.8533 O.3     1  UNL1       -0.4628
     14 C         143.0006  143.4345  162.8335 C.ar    1  UNL1        0.1708
     15 C         142.3004  143.7490  164.1223 C.ar    1  UNL1        0.0411
     16 C         140.9555  144.4129  164.1025 C.ar    1  UNL1        0.0193
     17 C         140.3108  144.7624  162.7939 C.ar    1  UNL1        0.0765
     18 N         141.0110  144.4479  161.5052 N.ar    1  UNL1       -0.2304
     19 C         142.3559  143.7839  161.5250 C.ar    1  UNL1        0.1682
     20 N         143.0561  143.4694  160.2363 N.am    1  UNL1       -0.2639
     21 H         142.6330  143.6988  159.3775 H       1  UNL1        0.1565
     22 C         138.1120  138.6173  162.3780 C.3     1  UNL1        0.0970
     23 C         139.3669  137.9283  162.8259 C.3     1  UNL1        0.1264
     24 N         140.6917  138.3349  162.2517 N.ar    1  UNL1       -0.2926
     25 C         140.8788  138.3919  160.7645 C.ar    1  UNL1        0.2611
     26 O         139.7411  138.0423  159.8515 O.2     1  UNL1       -0.2670
     27 C         142.2035  138.7985  160.1903 C.ar    1  UNL1        0.0623
     28 C         143.3412  139.1482  161.1034 C.ar    1  UNL1        0.0255
     29 C         143.1541  139.0912  162.5905 C.ar    1  UNL1        0.0975
     30 N         144.2917  139.4408  163.5035 N.ar    1  UNL1       -0.2392
     31 C         144.1046  139.3837  164.9907 C.ar    1  UNL1        0.1363
     32 C         142.7798  138.9771  165.5649 C.ar    1  UNL1        0.1659
     33 C         141.6421  138.6275  164.6519 C.ar    1  UNL1        0.0579
     34 C         141.8293  138.6845  163.1647 C.ar    1  UNL1        0.0832
     35 O         142.5927  138.9201  167.0521 O.3     1  UNL1       -0.4502
     36 C         141.9446  140.0662  167.7710 C.ar    1  UNL1        0.1667
     37 C         142.6111  141.4097  167.7948 C.ar    1  UNL1        0.1364
     38 N         141.9630  142.5558  168.5137 N.ar    1  UNL1       -0.2368
     39 C         140.6485  142.3582  169.2086 C.ar    1  UNL1        0.1286
     40 C         139.9820  141.0145  169.1847 C.ar    1  UNL1        0.1623
     41 F         138.6675  140.8169  169.8797 F       1  UNL1       -0.2024
     42 C         140.6301  139.8686  168.4659 C.ar    1  UNL1        0.0703
@<TRIPOS>BOND
     1    10    11    2
     2    11    12    1
     3    12    13    1
     4    13    14    1
     5    14    15   ar
     6    15    16   ar
     7    16    17   ar
     8    17     9    1
     9     9     7    1
    10     7     1    1
    11     1     2    1
    12     2     3    1
    13     3     4    1
    14     4    22    1
    15    22    23    1
    16    23    24    1
    17    24    25   ar
    18    25    26    2
    19    25    27   ar
    20    27    28   ar
    21    28    29   ar
    22    29    30   ar
    23    30    31   ar
    24    31    32   ar
    25    32    35    1
    26    35    36    1
    27    36    37   ar
    28    37    38   ar
    29    38    39   ar
    30    39    40   ar
    31    40    41    1
    32    40    42   ar
    33    32    33   ar
    34    33    34   ar
    35     4     5    1
    36     5     6    1
    37    17    18   ar
    38    18    19   ar
    39    19    20    1
    40    20    11   am
    41    19    14   ar
    42     6     1    1
    43    34    24   ar
    44    34    29   ar
    45    42    36   ar
    46     7     8    1
    47    20    21    1
@<TRIPOS>MOLECULE
*****
 42 47 0 0 0
SMALL
GASTEIGER

@<TRIPOS>ATOM
      1 C         139.8547  138.2395  162.1612 C.3     1  UNL1        0.0570
      2 C         140.1789  138.1793  163.6244 C.3     1  UNL1        0.0331
      3 C         141.5684  138.4879  164.0981 C.3     1  UNL1        0.0735
      4 N         142.6336  138.8567  163.1085 N.3     1  UNL1       -0.2710
      5 C         142.3093  138.9168  161.6451 C.3     1  UNL1        0.0735
      6 C         140.9199  138.6082  161.1715 C.3     1  UNL1        0.0331
      7 N         138.4654  137.9309  161.6875 N.3     1  UNL1       -0.2934
      8 H         138.5513  137.2056  160.9755 H       1  UNL1        0.1236
      9 C         137.6151  139.0173  161.0986 C.3     1  UNL1        0.1152
     10 O         141.1227  145.5994  158.8352 O.2     1  UNL1       -0.2707
     11 C         140.2986  144.8443  159.8355 C.2     1  UNL1        0.2718
     12 C         139.8196  145.5280  161.0817 C.3     1  UNL1        0.2898
     13 O         138.9955  144.7729  162.0820 O.3     1  UNL1       -0.4628
     14 C         138.6504  143.3341  161.8362 C.ar    1  UNL1        0.1708
     15 C         137.8263  142.5789  162.8365 C.ar    1  UNL1        0.0411
     16 C         137.4812  141.1401  162.5907 C.ar    1  UNL1        0.0193
     17 C         137.9602  140.4562  161.3444 C.ar    1  UNL1        0.0765
     18 N         138.7843  141.2113  160.3441 N.ar    1  UNL1       -0.2304
     19 C         139.1294  142.6503  160.5900 C.ar    1  UNL1        0.1682
     20 N         139.9535  143.4054  159.5897 N.am    1  UNL1       -0.2639
     21 H         140.2679  142.9566  158.7717 H       1  UNL1        0.1565
     22 C         144.0229  139.1652  163.5821 C.3     1  UNL1        0.0970
     23 C         144.2839  140.4064  164.3829 C.3     1  UNL1        0.1264
     24 N         143.8084  141.7373  163.8800 N.ar    1  UNL1       -0.2926
     25 C         144.5723  142.4484  162.8026 C.ar    1  UNL1        0.2611
     26 O         145.8116  141.8287  162.2281 O.2     1  UNL1       -0.2670
     27 C         144.0968  143.7792  162.2997 C.ar    1  UNL1        0.0623
     28 C         142.8575  144.3989  162.8743 C.ar    1  UNL1        0.0255
     29 C         142.0936  143.6878  163.9517 C.ar    1  UNL1        0.0975
     30 N         140.8543  144.3074  164.5262 N.ar    1  UNL1       -0.2392
     31 C         140.0905  143.5962  165.6036 C.ar    1  UNL1        0.1363
     32 C         140.5659  142.2655  166.1065 C.ar    1  UNL1        0.1659
     33 C         141.8053  141.6458  165.5319 C.ar    1  UNL1        0.0579
     34 C         142.5691  142.3569  164.4545 C.ar    1  UNL1        0.0832
     35 O         139.8021  141.5543  167.1839 O.3     1  UNL1       -0.4502
     36 C         140.2847  141.6044  168.6033 C.ar    1  UNL1        0.1667
     37 C         139.6787  140.6986  169.6339 C.ar    1  UNL1        0.1364
     38 N         140.1614  140.7486  171.0533 N.ar    1  UNL1       -0.2368
     39 C         141.2500  141.7046  171.4420 C.ar    1  UNL1        0.1286
     40 C         141.8559  142.6105  170.4113 C.ar    1  UNL1        0.1623
     41 F         142.9445  143.5665  170.8000 F       1  UNL1       -0.2024
     42 C         141.3733  142.5604  168.9920 C.ar    1  UNL1        0.0703
@<TRIPOS>BOND
     1    10    11    2
     2    11    12    1
     3    12    13    1
     4    13    14    1
     5    14    15   ar
     6    15    16   ar
     7    16    17   ar
     8    17     9    1
     9     9     7    1
    10     7     1    1
    11     1     2    1
    12     2     3    1
    13     3     4    1
    14     4    22    1
    15    22    23    1
    16    23    24    1
    17    24    25   ar
    18    25    26    2
    19    25    27   ar
    20    27    28   ar
    21    28    29   ar
    22    29    30   ar
    23    30    31   ar
    24    31    32   ar
    25    32    35    1
    26    35    36    1
    27    36    37   ar
    28    37    38   ar
    29    38    39   ar
    30    39    40   ar
    31    40    41    1
    32    40    42   ar
    33    32    33   ar
    34    33    34   ar
    35     4     5    1
    36     5     6    1
    37    17    18   ar
    38    18    19   ar
    39    19    20    1
    40    20    11   am
    41    19    14   ar
    42     6     1    1
    43    34    24   ar
    44    34    29   ar
    45    42    36   ar
    46     7     8    1
    47    20    21    1
@<TRIPOS>MOLECULE
*****
 42 47 0 0 0
SMALL
GASTEIGER

@<TRIPOS>ATOM
      1 C         140.4669  144.7901  163.3600 C.3     1  UNL1        0.0570
      2 C         141.2917  144.2138  164.4725 C.3     1  UNL1        0.0331
      3 C         142.6891  143.7401  164.2024 C.3     1  UNL1        0.0735
      4 N         143.2617  143.8427  162.8198 N.3     1  UNL1       -0.2710
      5 C         142.4368  144.4190  161.7073 C.3     1  UNL1        0.0735
      6 C         141.0395  144.8927  161.9774 C.3     1  UNL1        0.0331
      7 N         139.0695  145.2637  163.6302 N.3     1  UNL1       -0.2934
      8 H         138.9714  145.3287  164.6434 H       1  UNL1        0.1236
      9 C         137.8988  144.4693  163.1318 C.3     1  UNL1        0.1152
     10 O         138.6692  137.1002  165.5510 O.2     1  UNL1       -0.2707
     11 C         138.5732  138.0977  164.4349 C.2     1  UNL1        0.2718
     12 C         138.6379  137.6365  163.0091 C.3     1  UNL1        0.2898
     13 O         138.5419  138.6340  161.8929 O.3     1  UNL1       -0.4628
     14 C         138.3811  140.0928  162.2026 C.ar    1  UNL1        0.1708
     15 C         138.2851  141.0903  161.0865 C.ar    1  UNL1        0.0411
     16 C         138.1243  142.5491  161.3962 C.ar    1  UNL1        0.0193
     17 C         138.0596  143.0105  162.8221 C.ar    1  UNL1        0.0765
     18 N         138.1556  142.0130  163.9382 N.ar    1  UNL1       -0.2304
     19 C         138.3164  140.5541  163.6284 C.ar    1  UNL1        0.1682
     20 N         138.4124  139.5566  164.7445 N.am    1  UNL1       -0.2639
     21 H         138.3699  139.8594  165.6804 H       1  UNL1        0.1565
     22 C         144.6590  143.3691  162.5496 C.3     1  UNL1        0.0970
     23 C         145.0142  141.9260  162.7528 C.3     1  UNL1        0.1264
     24 N         144.0842  140.8503  162.2752 N.ar    1  UNL1       -0.2926
     25 C         143.7661  140.7281  160.8144 C.ar    1  UNL1        0.2611
     26 O         144.3780  141.6816  159.8313 O.2     1  UNL1       -0.2670
     27 C         142.8362  139.6524  160.3368 C.ar    1  UNL1        0.0623
     28 C         142.2243  138.6989  161.3199 C.ar    1  UNL1        0.0255
     29 C         142.5424  138.8211  162.7807 C.ar    1  UNL1        0.0975
     30 N         141.9306  137.8677  163.7638 N.ar    1  UNL1       -0.2392
     31 C         142.2487  137.9899  165.2246 C.ar    1  UNL1        0.1363
     32 C         143.1786  139.0656  165.7023 C.ar    1  UNL1        0.1659
     33 C         143.7905  140.0191  164.7191 C.ar    1  UNL1        0.0579
     34 C         143.4724  139.8969  163.2583 C.ar    1  UNL1        0.0832
     35 O         143.4967  139.1878  167.1630 O.3     1  UNL1       -0.4502
     36 C         142.5632  139.9280  168.0745 C.ar    1  UNL1        0.1667
     37 C         142.2947  139.4085  169.4558 C.ar    1  UNL1        0.1364
     38 N         141.3612  140.1487  170.3673 N.ar    1  UNL1       -0.2368
     39 C         140.6962  141.4084  169.8974 C.ar    1  UNL1        0.1286
     40 C         140.9646  141.9280  168.5160 C.ar    1  UNL1        0.1623
     41 F         140.2996  143.1877  168.0461 F       1  UNL1       -0.2024
     42 C         141.8981  141.1878  167.6046 C.ar    1  UNL1        0.0703
@<TRIPOS>BOND
     1    10    11    2
     2    11    12    1
     3    12    13    1
     4    13    14    1
     5    14    15   ar
     6    15    16   ar
     7    16    17   ar
     8    17     9    1
     9     9     7    1
    10     7     1    1
    11     1     2    1
    12     2     3    1
    13     3     4    1
    14     4    22    1
    15    22    23    1
    16    23    24    1
    17    24    25   ar
    18    25    26    2
    19    25    27   ar
    20    27    28   ar
    21    28    29   ar
    22    29    30   ar
    23    30    31   ar
    24    31    32   ar
    25    32    35    1
    26    35    36    1
    27    36    37   ar
    28    37    38   ar
    29    38    39   ar
    30    39    40   ar
    31    40    41    1
    32    40    42   ar
    33    32    33   ar
    34    33    34   ar
    35     4     5    1
    36     5     6    1
    37    17    18   ar
    38    18    19   ar
    39    19    20    1
    40    20    11   am
    41    19    14   ar
    42     6     1    1
    43    34    24   ar
    44    34    29   ar
    45    42    36   ar
    46     7     8    1
    47    20    21    1
