@<TRIPOS>MOLECULE
*****
 32 33 0 0 0
SMALL
GASTEIGER

@<TRIPOS>ATOM
      1 C         139.3790  139.7296  166.6706 C.3     1  UNL1        0.2227
      2 C         139.3806  140.0086  168.1444 C.3     1  UNL1        0.1201
      3 N         140.6777  140.0652  168.8955 N.3     1  UNL1       -0.2681
      4 C         140.6747  140.1149  170.3948 C.3     1  UNL1        0.0897
      5 C         141.9779  140.0722  168.1476 C.3     1  UNL1        0.0769
      6 C         142.5583  141.3682  167.6644 C.3     1  UNL1        0.0438
      7 C         144.6983  141.5395  163.7095 C.ar    1  UNL1        0.1724
      8 C         144.4565  142.7995  164.4866 C.ar    1  UNL1        0.0397
      9 C         143.7431  142.7424  165.8049 C.ar    1  UNL1       -0.0009
     10 C         143.2716  141.4253  166.3461 C.ar    1  UNL1       -0.0176
     11 C         143.5134  140.1653  165.5690 C.ar    1  UNL1        0.0358
     12 C         144.2268  140.2225  164.2507 C.ar    1  UNL1        0.1721
     13 C         144.9087  142.5003  161.3048 C.3     1  UNL1        0.2526
     14 O         145.4116  141.5966  162.3912 O.3     1  UNL1       -0.4684
     15 O         144.4685  138.9624  163.4735 O.3     1  UNL1       -0.4684
     16 C         143.6736  138.6822  162.2328 C.3     1  UNL1        0.2526
     17 O         138.3866  140.4148  165.7786 O.3     1  UNL1       -0.4727
     18 C         138.7532  141.6993  165.0961 C.ar    1  UNL1        0.1514
     19 C         139.8887  142.5286  165.6184 C.ar    1  UNL1        0.0395
     20 C         140.2553  143.8130  164.9359 C.ar    1  UNL1        0.0190
     21 C         139.4864  144.2681  163.7311 C.ar    1  UNL1        0.0658
     22 C         138.3509  143.4388  163.2087 C.ar    1  UNL1        0.0330
     23 C         137.9843  142.1543  163.8912 C.ar    1  UNL1        0.0773
     24 N         136.8488  141.3250  163.3689 N.pl3   1  UNL1       -0.3546
     25 H         136.3442  141.6237  162.5781 H       1  UNL1        0.1424
     26 H         136.6082  140.4820  163.8169 H       1  UNL1        0.1424
     27 N         139.8531  145.5525  163.0485 N.pl3   1  UNL1       -0.2187
     28 H         139.8595  146.3957  163.5568 H       1  UNL1        0.1734
     29 S         140.2099  145.5524  161.5916 S.O2    1  UNL1        0.0558
     30 C         140.5667  145.5522  160.1347 C.3     1  UNL1        0.1996
     31 O         141.4141  144.7081  161.8867 O.2     1  UNL1       -0.1544
     32 O         139.0057  146.3966  161.2966 O.2     1  UNL1       -0.1544
@<TRIPOS>BOND
     1    13    14    1
     2    14     7    1
     3     7     8   ar
     4     8     9   ar
     5     9    10   ar
     6    10     6    1
     7     6     5    1
     8     5     3    1
     9     3     4    1
    10     3     2    1
    11     2     1    1
    12     1    17    1
    13    17    18    1
    14    18    19   ar
    15    19    20   ar
    16    20    21   ar
    17    21    27    1
    18    27    29    1
    19    29    30    1
    20    29    31    2
    21    29    32    2
    22    21    22   ar
    23    22    23   ar
    24    23    24    1
    25    10    11   ar
    26    11    12   ar
    27    12    15    1
    28    15    16    1
    29    12     7   ar
    30    23    18   ar
    31    27    28    1
    32    24    25    1
    33    24    26    1
@<TRIPOS>MOLECULE
*****
 32 33 0 0 0
SMALL
GASTEIGER

@<TRIPOS>ATOM
      1 C         139.0714  145.4300  162.7286 C.3     1  UNL1        0.2227
      2 C         139.9584  145.8355  161.5889 C.3     1  UNL1        0.1201
      3 N         141.1008  144.9547  161.1774 N.3     1  UNL1       -0.2681
      4 C         141.4497  144.8081  159.7259 C.3     1  UNL1        0.0897
      5 C         141.8942  144.2206  162.2174 C.3     1  UNL1        0.0769
      6 C         141.6144  142.7724  162.4903 C.3     1  UNL1        0.0438
      7 C         141.0243  141.3528  166.7195 C.ar    1  UNL1        0.1724
      8 C         140.7302  142.7788  166.3592 C.ar    1  UNL1        0.0397
      9 C         140.9269  143.2520  164.9494 C.ar    1  UNL1       -0.0009
     10 C         141.4177  142.2992  163.9001 C.ar    1  UNL1       -0.0176
     11 C         141.7119  140.8732  164.2604 C.ar    1  UNL1        0.0358
     12 C         141.5152  140.4000  165.6702 C.ar    1  UNL1        0.1721
     13 C         140.2891  141.8188  169.1674 C.3     1  UNL1        0.2526
     14 O         140.8276  140.8796  168.1293 O.3     1  UNL1       -0.4684
     15 O         141.8093  138.9739  166.0306 O.3     1  UNL1       -0.4684
     16 C         143.2272  138.5291  166.2347 C.3     1  UNL1        0.2526
     17 O         137.8443  144.6076  162.4680 O.3     1  UNL1       -0.4727
     18 C         137.9251  143.1101  162.4964 C.ar    1  UNL1        0.1514
     19 C         137.6900  142.3705  163.7800 C.ar    1  UNL1        0.0395
     20 C         137.7708  140.8729  163.8084 C.ar    1  UNL1        0.0190
     21 C         138.0866  140.1150  162.5532 C.ar    1  UNL1        0.0658
     22 C         138.3217  140.8545  161.2695 C.ar    1  UNL1        0.0330
     23 C         138.2410  142.3521  161.2411 C.ar    1  UNL1        0.0773
     24 N         138.4761  143.0917  159.9575 N.pl3   1  UNL1       -0.3546
     25 H         138.6834  142.5942  159.1336 H       1  UNL1        0.1424
     26 H         138.4230  144.0746  159.9389 H       1  UNL1        0.1424
     27 N         138.1674  138.6174  162.5816 N.pl3   1  UNL1       -0.2187
     28 H         137.3651  138.0776  162.3968 H       1  UNL1        0.1734
     29 S         139.4705  137.9423  162.8915 S.O2    1  UNL1        0.0558
     30 C         140.7736  137.2673  163.2015 C.3     1  UNL1        0.1996
     31 O         139.7991  137.9048  161.4285 O.2     1  UNL1       -0.1544
     32 O         139.1419  137.9799  164.3546 O.2     1  UNL1       -0.1544
@<TRIPOS>BOND
     1    13    14    1
     2    14     7    1
     3     7     8   ar
     4     8     9   ar
     5     9    10   ar
     6    10     6    1
     7     6     5    1
     8     5     3    1
     9     3     4    1
    10     3     2    1
    11     2     1    1
    12     1    17    1
    13    17    18    1
    14    18    19   ar
    15    19    20   ar
    16    20    21   ar
    17    21    27    1
    18    27    29    1
    19    29    30    1
    20    29    31    2
    21    29    32    2
    22    21    22   ar
    23    22    23   ar
    24    23    24    1
    25    10    11   ar
    26    11    12   ar
    27    12    15    1
    28    15    16    1
    29    12     7   ar
    30    23    18   ar
    31    27    28    1
    32    24    25    1
    33    24    26    1
@<TRIPOS>MOLECULE
*****
 32 33 0 0 0
SMALL
GASTEIGER

@<TRIPOS>ATOM
      1 C         138.5889  138.7944  164.9340 C.3     1  UNL1        0.2227
      2 C         140.0377  138.4281  165.0629 C.3     1  UNL1        0.1201
      3 N         140.9854  138.7081  163.9345 N.3     1  UNL1       -0.2681
      4 C         140.5141  139.4684  162.7304 C.3     1  UNL1        0.0897
      5 C         142.4045  138.2279  164.0101 C.3     1  UNL1        0.0769
      6 C         143.4814  139.1459  164.5077 C.3     1  UNL1        0.0438
      7 C         142.6992  141.8283  168.0351 C.ar    1  UNL1        0.1724
      8 C         143.2509  142.4025  166.7640 C.ar    1  UNL1        0.0397
      9 C         143.5117  141.5084  165.5882 C.ar    1  UNL1       -0.0009
     10 C         143.2206  140.0400  165.6835 C.ar    1  UNL1       -0.0176
     11 C         142.6689  139.4658  166.9546 C.ar    1  UNL1        0.0358
     12 C         142.4081  140.3599  168.1304 C.ar    1  UNL1        0.1721
     13 C         141.0519  143.2307  169.4738 C.3     1  UNL1        0.2526
     14 O         142.4384  142.7224  169.2110 O.3     1  UNL1       -0.4684
     15 O         141.8563  139.7855  169.4016 O.3     1  UNL1       -0.4684
     16 C         142.6491  138.7726  170.1731 C.3     1  UNL1        0.2526
     17 O         138.0795  140.0659  165.5454 O.3     1  UNL1       -0.4727
     18 C         138.5259  141.3908  165.0021 C.ar    1  UNL1        0.1514
     19 C         139.6499  142.1322  165.6631 C.ar    1  UNL1        0.0395
     20 C         140.0964  143.4571  165.1197 C.ar    1  UNL1        0.0190
     21 C         139.4188  144.0407  163.9155 C.ar    1  UNL1        0.0658
     22 C         138.2947  143.2993  163.2545 C.ar    1  UNL1        0.0330
     23 C         137.8483  141.9744  163.7978 C.ar    1  UNL1        0.0773
     24 N         136.7243  141.2330  163.1369 N.pl3   1  UNL1       -0.3546
     25 H         136.2795  141.6160  162.3464 H       1  UNL1        0.1424
     26 H         136.4313  140.3634  163.4935 H       1  UNL1        0.1424
     27 N         139.8652  145.3657  163.3722 N.pl3   1  UNL1       -0.2187
     28 H         139.9010  146.1529  163.9623 H       1  UNL1        0.1734
     29 S         140.2571  145.4912  161.9297 S.O2    1  UNL1        0.0558
     30 C         140.6490  145.6168  160.4873 C.3     1  UNL1        0.1996
     31 O         138.9939  146.2511  161.6527 O.2     1  UNL1       -0.1544
     32 O         141.5203  144.7313  162.2068 O.2     1  UNL1       -0.1544
@<TRIPOS>BOND
     1    13    14    1
     2    14     7    1
     3     7     8   ar
     4     8     9   ar
     5     9    10   ar
     6    10     6    1
     7     6     5    1
     8     5     3    1
     9     3     4    1
    10     3     2    1
    11     2     1    1
    12     1    17    1
    13    17    18    1
    14    18    19   ar
    15    19    20   ar
    16    20    21   ar
    17    21    27    1
    18    27    29    1
    19    29    30    1
    20    29    31    2
    21    29    32    2
    22    21    22   ar
    23    22    23   ar
    24    23    24    1
    25    10    11   ar
    26    11    12   ar
    27    12    15    1
    28    15    16    1
    29    12     7   ar
    30    23    18   ar
    31    27    28    1
    32    24    25    1
    33    24    26    1
@<TRIPOS>MOLECULE
*****
 32 33 0 0 0
SMALL
GASTEIGER

@<TRIPOS>ATOM
      1 C         139.7535  140.2789  166.4073 C.3     1  UNL1        0.2227
      2 C         138.4957  139.7488  165.7854 C.3     1  UNL1        0.1201
      3 N         138.4827  139.3558  164.3379 N.3     1  UNL1       -0.2681
      4 C         138.2171  140.3883  163.2827 C.3     1  UNL1        0.0897
      5 C         138.7353  137.9302  163.9455 C.3     1  UNL1        0.0769
      6 C         139.8999  137.5902  163.0635 C.3     1  UNL1        0.0438
      7 C         143.9663  139.3039  163.9456 C.ar    1  UNL1        0.1724
      8 C         143.3807  139.4318  162.5705 C.ar    1  UNL1        0.0397
      9 C         142.0252  138.8605  162.2765 C.ar    1  UNL1       -0.0009
     10 C         141.2554  138.1615  163.3575 C.ar    1  UNL1       -0.0176
     11 C         141.8410  138.0336  164.7325 C.ar    1  UNL1        0.0358
     12 C         143.1964  138.6049  165.0265 C.ar    1  UNL1        0.1721
     13 C         145.6423  141.2866  163.8458 C.3     1  UNL1        0.2526
     14 O         145.3217  139.8752  164.2396 O.3     1  UNL1       -0.4684
     15 O         143.7820  138.4770  166.4016 O.3     1  UNL1       -0.4684
     16 C         143.0214  138.9842  167.5908 C.3     1  UNL1        0.2526
     17 O         139.8466  141.7248  166.7954 O.3     1  UNL1       -0.4727
     18 C         140.1135  142.7665  165.7496 C.ar    1  UNL1        0.1514
     19 C         138.9828  143.5854  165.2010 C.ar    1  UNL1        0.0395
     20 C         139.2496  144.6270  164.1552 C.ar    1  UNL1        0.0190
     21 C         140.6471  144.8497  163.6578 C.ar    1  UNL1        0.0658
     22 C         141.7779  144.0307  164.2064 C.ar    1  UNL1        0.0330
     23 C         141.5111  142.9891  165.2523 C.ar    1  UNL1        0.0773
     24 N         142.6417  142.1702  165.8008 N.pl3   1  UNL1       -0.3546
     25 H         143.5590  142.3164  165.4744 H       1  UNL1        0.1424
     26 H         142.4666  141.4866  166.4872 H       1  UNL1        0.1424
     27 N         140.9140  145.8913  162.6120 N.pl3   1  UNL1       -0.2187
     28 H         141.3075  146.7566  162.8682 H       1  UNL1        0.1734
     29 S         140.5813  145.6145  161.1758 S.O2    1  UNL1        0.0558
     30 C         140.2486  145.3378  159.7396 C.3     1  UNL1        0.1996
     31 O         139.3009  146.3817  161.3245 O.2     1  UNL1       -0.1544
     32 O         141.8616  144.8474  161.0270 O.2     1  UNL1       -0.1544
@<TRIPOS>BOND
     1    13    14    1
     2    14     7    1
     3     7     8   ar
     4     8     9   ar
     5     9    10   ar
     6    10     6    1
     7     6     5    1
     8     5     3    1
     9     3     4    1
    10     3     2    1
    11     2     1    1
    12     1    17    1
    13    17    18    1
    14    18    19   ar
    15    19    20   ar
    16    20    21   ar
    17    21    27    1
    18    27    29    1
    19    29    30    1
    20    29    31    2
    21    29    32    2
    22    21    22   ar
    23    22    23   ar
    24    23    24    1
    25    10    11   ar
    26    11    12   ar
    27    12    15    1
    28    15    16    1
    29    12     7   ar
    30    23    18   ar
    31    27    28    1
    32    24    25    1
    33    24    26    1
@<TRIPOS>MOLECULE
*****
 32 33 0 0 0
SMALL
GASTEIGER

@<TRIPOS>ATOM
      1 C         143.6104  145.0836  163.8042 C.3     1  UNL1        0.2227
      2 C         142.6560  144.7813  162.6872 C.3     1  UNL1        0.1201
      3 N         141.1906  144.6343  162.9719 N.3     1  UNL1       -0.2681
      4 C         140.2214  144.4533  161.8414 C.3     1  UNL1        0.0897
      5 C         140.6944  144.6682  164.3870 C.3     1  UNL1        0.0769
      6 C         139.5232  143.8229  164.7916 C.3     1  UNL1        0.0438
      7 C         140.0245  140.6380  167.9308 C.ar    1  UNL1        0.1724
      8 C         140.4789  142.0407  168.2062 C.ar    1  UNL1        0.0397
      9 C         140.3118  143.1023  167.1598 C.ar    1  UNL1       -0.0009
     10 C         139.6903  142.7613  165.8380 C.ar    1  UNL1       -0.0176
     11 C         139.2358  141.3586  165.5626 C.ar    1  UNL1        0.0358
     12 C         139.4029  140.2970  166.6090 C.ar    1  UNL1        0.1721
     13 C         141.0268  139.8469  170.1934 C.3     1  UNL1        0.2526
     14 O         140.1916  139.5764  168.9772 O.3     1  UNL1       -0.4684
     15 O         138.9484  138.8942  166.3335 O.3     1  UNL1       -0.4684
     16 C         137.6547  138.3985  166.9083 C.3     1  UNL1        0.2526
     17 O         144.4517  143.9881  164.3890 O.3     1  UNL1       -0.4727
     18 C         144.0620  142.5538  164.1865 C.ar    1  UNL1        0.1514
     19 C         143.1431  141.8813  165.1629 C.ar    1  UNL1        0.0395
     20 C         142.7534  140.4470  164.9604 C.ar    1  UNL1        0.0190
     21 C         143.2826  139.6853  163.7816 C.ar    1  UNL1        0.0658
     22 C         144.2015  140.3578  162.8051 C.ar    1  UNL1        0.0330
     23 C         144.5912  141.7921  163.0076 C.ar    1  UNL1        0.0773
     24 N         145.5101  142.4646  162.0313 N.pl3   1  UNL1       -0.3546
     25 H         145.8575  141.9647  161.2576 H       1  UNL1        0.1424
     26 H         145.7659  143.4060  162.1642 H       1  UNL1        0.1424
     27 N         142.8928  138.2510  163.5791 N.pl3   1  UNL1       -0.2187
     28 H         143.5830  137.5490  163.5772 H       1  UNL1        0.1734
     29 S         141.4516  137.8864  163.3794 S.O2    1  UNL1        0.0558
     30 C         140.0104  137.5218  163.1798 C.3     1  UNL1        0.1996
     31 O         141.4442  137.1888  164.7072 O.2     1  UNL1       -0.1544
     32 O         141.4591  138.5841  162.0516 O.2     1  UNL1       -0.1544
@<TRIPOS>BOND
     1    13    14    1
     2    14     7    1
     3     7     8   ar
     4     8     9   ar
     5     9    10   ar
     6    10     6    1
     7     6     5    1
     8     5     3    1
     9     3     4    1
    10     3     2    1
    11     2     1    1
    12     1    17    1
    13    17    18    1
    14    18    19   ar
    15    19    20   ar
    16    20    21   ar
    17    21    27    1
    18    27    29    1
    19    29    30    1
    20    29    31    2
    21    29    32    2
    22    21    22   ar
    23    22    23   ar
    24    23    24    1
    25    10    11   ar
    26    11    12   ar
    27    12    15    1
    28    15    16    1
    29    12     7   ar
    30    23    18   ar
    31    27    28    1
    32    24    25    1
    33    24    26    1
@<TRIPOS>MOLECULE
*****
 32 33 0 0 0
SMALL
GASTEIGER

@<TRIPOS>ATOM
      1 C         141.4542  144.2536  163.7151 C.3     1  UNL1        0.2227
      2 C         142.8893  144.6525  163.8925 C.3     1  UNL1        0.1201
      3 N         143.9843  143.6904  163.5386 N.3     1  UNL1       -0.2681
      4 C         144.4414  143.5648  162.1154 C.3     1  UNL1        0.0897
      5 C         144.6224  142.8539  164.6078 C.3     1  UNL1        0.0769
      6 C         145.0788  141.4594  164.2966 C.3     1  UNL1        0.0438
      7 C         142.0592  138.1569  163.8216 C.ar    1  UNL1        0.1724
      8 C         142.5224  138.5584  165.1906 C.ar    1  UNL1        0.0397
      9 C         143.5289  139.6593  165.3489 C.ar    1  UNL1       -0.0009
     10 C         144.0723  140.3586  164.1383 C.ar    1  UNL1       -0.0176
     11 C         143.6091  139.9570  162.7693 C.ar    1  UNL1        0.0358
     12 C         142.6025  138.8562  162.6110 C.ar    1  UNL1        0.1721
     13 C         139.6073  137.3880  163.4382 C.3     1  UNL1        0.2526
     14 O         141.0527  137.0561  163.6633 O.3     1  UNL1       -0.4684
     15 O         142.1393  138.4547  161.2419 O.3     1  UNL1       -0.4684
     16 C         143.0178  137.6052  160.3721 C.3     1  UNL1        0.2526
     17 O         141.0802  142.8020  163.6625 O.3     1  UNL1       -0.4727
     18 C         140.7014  142.0790  164.9211 C.ar    1  UNL1        0.1514
     19 C         141.3700  142.4293  166.2173 C.ar    1  UNL1        0.0395
     20 C         140.9912  141.7063  167.4759 C.ar    1  UNL1        0.0190
     21 C         139.9440  140.6331  167.4381 C.ar    1  UNL1        0.0658
     22 C         139.2754  140.2829  166.1418 C.ar    1  UNL1        0.0330
     23 C         139.6541  141.0058  164.8833 C.ar    1  UNL1        0.0773
     24 N         138.9856  140.6556  163.5870 N.pl3   1  UNL1       -0.3546
     25 H         138.2982  139.9512  163.5622 H       1  UNL1        0.1424
     26 H         139.2342  141.1301  162.7610 H       1  UNL1        0.1424
     27 N         139.5652  139.9102  168.6967 N.pl3   1  UNL1       -0.2187
     28 H         138.9256  139.1626  168.6614 H       1  UNL1        0.1734
     29 S         140.1610  140.3262  170.0088 S.O2    1  UNL1        0.0558
     30 C         140.7569  140.7422  171.3210 C.3     1  UNL1        0.1996
     31 O         141.3262  139.4125  169.7695 O.2     1  UNL1       -0.1544
     32 O         138.9958  141.2399  170.2482 O.2     1  UNL1       -0.1544
@<TRIPOS>BOND
     1    13    14    1
     2    14     7    1
     3     7     8   ar
     4     8     9   ar
     5     9    10   ar
     6    10     6    1
     7     6     5    1
     8     5     3    1
     9     3     4    1
    10     3     2    1
    11     2     1    1
    12     1    17    1
    13    17    18    1
    14    18    19   ar
    15    19    20   ar
    16    20    21   ar
    17    21    27    1
    18    27    29    1
    19    29    30    1
    20    29    31    2
    21    29    32    2
    22    21    22   ar
    23    22    23   ar
    24    23    24    1
    25    10    11   ar
    26    11    12   ar
    27    12    15    1
    28    15    16    1
    29    12     7   ar
    30    23    18   ar
    31    27    28    1
    32    24    25    1
    33    24    26    1
@<TRIPOS>MOLECULE
*****
 32 33 0 0 0
SMALL
GASTEIGER

@<TRIPOS>ATOM
      1 C         137.9841  141.4202  164.3702 C.3     1  UNL1        0.2227
      2 C         139.1150  141.3311  165.3516 C.3     1  UNL1        0.1201
      3 N         139.1485  140.2197  166.3584 N.3     1  UNL1       -0.2681
      4 C         140.1801  140.2250  167.4473 C.3     1  UNL1        0.0897
      5 C         138.1504  139.1030  166.2762 C.3     1  UNL1        0.0769
      6 C         138.5363  137.7970  165.6475 C.3     1  UNL1        0.0438
      7 C         141.2726  137.7408  162.0755 C.ar    1  UNL1        0.1724
      8 C         141.8341  137.5512  163.4534 C.ar    1  UNL1        0.0397
      9 C         140.9220  137.5699  164.6441 C.ar    1  UNL1       -0.0009
     10 C         139.4484  137.7782  164.4568 C.ar    1  UNL1       -0.0176
     11 C         138.8869  137.9678  163.0789 C.ar    1  UNL1        0.0358
     12 C         139.7990  137.9491  161.8882 C.ar    1  UNL1        0.1721
     13 C         143.3850  138.6207  160.8453 C.3     1  UNL1        0.2526
     14 O         142.1847  137.7221  160.8848 O.3     1  UNL1       -0.4684
     15 O         139.2375  138.1387  160.5102 O.3     1  UNL1       -0.4684
     16 C         139.2575  139.4962  159.8724 C.3     1  UNL1        0.2526
     17 O         137.6484  142.7345  163.7300 O.3     1  UNL1       -0.4727
     18 C         138.6361  143.3979  162.8165 C.ar    1  UNL1        0.1514
     19 C         138.8517  142.8649  161.4311 C.ar    1  UNL1        0.0395
     20 C         139.8394  143.5282  160.5177 C.ar    1  UNL1        0.0190
     21 C         140.6114  144.7246  160.9895 C.ar    1  UNL1        0.0658
     22 C         140.3957  145.2576  162.3750 C.ar    1  UNL1        0.0330
     23 C         139.4081  144.5943  163.2885 C.ar    1  UNL1        0.0773
     24 N         139.1924  145.1273  164.6739 N.pl3   1  UNL1       -0.3546
     25 H         139.6991  145.9125  164.9836 H       1  UNL1        0.1424
     26 H         138.5442  144.6919  165.2734 H       1  UNL1        0.1424
     27 N         141.5991  145.3879  160.0760 N.pl3   1  UNL1       -0.2187
     28 H         142.3357  145.9220  160.4520 H       1  UNL1        0.1734
     29 S         141.4644  145.2375  158.5897 S.O2    1  UNL1        0.0558
     30 C         141.3297  145.0872  157.1034 C.3     1  UNL1        0.1996
     31 O         142.7116  144.4047  158.5610 O.2     1  UNL1       -0.1544
     32 O         140.2172  146.0704  158.6185 O.2     1  UNL1       -0.1544
@<TRIPOS>BOND
     1    13    14    1
     2    14     7    1
     3     7     8   ar
     4     8     9   ar
     5     9    10   ar
     6    10     6    1
     7     6     5    1
     8     5     3    1
     9     3     4    1
    10     3     2    1
    11     2     1    1
    12     1    17    1
    13    17    18    1
    14    18    19   ar
    15    19    20   ar
    16    20    21   ar
    17    21    27    1
    18    27    29    1
    19    29    30    1
    20    29    31    2
    21    29    32    2
    22    21    22   ar
    23    22    23   ar
    24    23    24    1
    25    10    11   ar
    26    11    12   ar
    27    12    15    1
    28    15    16    1
    29    12     7   ar
    30    23    18   ar
    31    27    28    1
    32    24    25    1
    33    24    26    1
@<TRIPOS>MOLECULE
*****
 32 33 0 0 0
SMALL
GASTEIGER

@<TRIPOS>ATOM
      1 C         140.4685  137.5106  162.5537 C.3     1  UNL1        0.2227
      2 C         140.8282  137.2065  163.9778 C.3     1  UNL1        0.1201
      3 N         140.4055  138.1393  165.0738 N.3     1  UNL1       -0.2681
      4 C         141.4349  138.9367  165.8186 C.3     1  UNL1        0.0897
      5 C         138.9535  138.2747  165.4250 C.3     1  UNL1        0.0769
      6 C         138.3980  139.6121  165.8158 C.3     1  UNL1        0.0438
      7 C         138.5435  143.0452  162.9102 C.ar    1  UNL1        0.1724
      8 C         139.0361  143.2301  164.3148 C.ar    1  UNL1        0.0397
      9 C         138.9876  142.0857  165.2834 C.ar    1  UNL1       -0.0009
     10 C         138.4465  140.7564  164.8473 C.ar    1  UNL1       -0.0176
     11 C         137.9540  140.5715  163.4426 C.ar    1  UNL1        0.0358
     12 C         138.0025  141.7159  162.4740 C.ar    1  UNL1        0.1721
     13 C         139.3910  145.4160  162.2692 C.3     1  UNL1        0.2526
     14 O         138.5920  144.1895  161.9416 O.3     1  UNL1       -0.4684
     15 O         137.5099  141.5309  161.0693 O.3     1  UNL1       -0.4684
     16 C         138.2555  140.6353  160.1249 C.3     1  UNL1        0.2526
     17 O         141.5072  138.0524  161.6171 O.3     1  UNL1       -0.4727
     18 C         142.2865  139.2788  161.9896 C.ar    1  UNL1        0.1514
     19 C         141.5676  140.5175  162.4354 C.ar    1  UNL1        0.0395
     20 C         142.3469  141.7439  162.8079 C.ar    1  UNL1        0.0190
     21 C         143.8450  141.7315  162.7347 C.ar    1  UNL1        0.0658
     22 C         144.5640  140.4928  162.2889 C.ar    1  UNL1        0.0330
     23 C         143.7847  139.2664  161.9163 C.ar    1  UNL1        0.0773
     24 N         144.5036  138.0277  161.4705 N.pl3   1  UNL1       -0.3546
     25 H         145.4869  138.0196  161.4225 H       1  UNL1        0.1424
     26 H         143.9921  137.2228  161.2260 H       1  UNL1        0.1424
     27 N         144.6243  142.9579  163.1072 N.pl3   1  UNL1       -0.2187
     28 H         145.6078  142.9476  163.0657 H       1  UNL1        0.1734
     29 S         143.9050  144.2000  163.5429 S.O2    1  UNL1        0.0558
     30 C         143.1857  145.4420  163.9786 C.3     1  UNL1        0.1996
     31 O         144.0338  143.7723  164.9748 O.2     1  UNL1       -0.1544
     32 O         143.7761  144.6276  162.1110 O.2     1  UNL1       -0.1544
@<TRIPOS>BOND
     1    13    14    1
     2    14     7    1
     3     7     8   ar
     4     8     9   ar
     5     9    10   ar
     6    10     6    1
     7     6     5    1
     8     5     3    1
     9     3     4    1
    10     3     2    1
    11     2     1    1
    12     1    17    1
    13    17    18    1
    14    18    19   ar
    15    19    20   ar
    16    20    21   ar
    17    21    27    1
    18    27    29    1
    19    29    30    1
    20    29    31    2
    21    29    32    2
    22    21    22   ar
    23    22    23   ar
    24    23    24    1
    25    10    11   ar
    26    11    12   ar
    27    12    15    1
    28    15    16    1
    29    12     7   ar
    30    23    18   ar
    31    27    28    1
    32    24    25    1
    33    24    26    1
@<TRIPOS>MOLECULE
*****
 32 33 0 0 0
SMALL
GASTEIGER

@<TRIPOS>ATOM
      1 C         142.1778  143.6026  162.7346 C.3     1  UNL1        0.2227
      2 C         141.6512  144.7994  163.4698 C.3     1  UNL1        0.1201
      3 N         140.2012  145.1677  163.3618 N.3     1  UNL1       -0.2681
      4 C         139.6851  145.8251  162.1161 C.3     1  UNL1        0.0897
      5 C         139.2672  144.8788  164.4994 C.3     1  UNL1        0.0769
      6 C         137.9666  144.1773  164.2423 C.3     1  UNL1        0.0438
      7 C         137.9566  139.9638  162.6623 C.ar    1  UNL1        0.1724
      8 C         137.8344  141.1203  161.7150 C.ar    1  UNL1        0.0397
      9 C         137.8378  142.5248  162.2417 C.ar    1  UNL1       -0.0009
     10 C         137.9633  142.7728  163.7156 C.ar    1  UNL1       -0.0176
     11 C         138.0854  141.6163  164.6630 C.ar    1  UNL1        0.0358
     12 C         138.0821  140.2118  164.1363 C.ar    1  UNL1        0.1721
     13 C         138.9343  138.1533  161.0761 C.3     1  UNL1        0.2526
     14 O         137.9533  138.5593  162.1357 O.3     1  UNL1       -0.4684
     15 O         138.2043  139.0552  165.0837 O.3     1  UNL1       -0.4684
     16 C         139.4411  138.2066  165.0758 C.3     1  UNL1        0.2526
     17 O         143.0136  142.5872  163.4559 O.3     1  UNL1       -0.4727
     18 C         142.7133  142.2480  164.8859 C.ar    1  UNL1        0.1514
     19 C         141.5501  141.3611  165.2180 C.ar    1  UNL1        0.0395
     20 C         141.2499  141.0219  166.6480 C.ar    1  UNL1        0.0190
     21 C         142.1128  141.5696  167.7458 C.ar    1  UNL1        0.0658
     22 C         143.2761  142.4565  167.4137 C.ar    1  UNL1        0.0330
     23 C         143.5764  142.7957  165.9838 C.ar    1  UNL1        0.0773
     24 N         144.7395  143.6826  165.6516 N.pl3   1  UNL1       -0.3546
     25 H         145.3060  144.0421  166.3722 H       1  UNL1        0.1424
     26 H         144.9366  143.9052  164.7131 H       1  UNL1        0.1424
     27 N         141.8126  141.2304  169.1758 N.pl3   1  UNL1       -0.2187
     28 H         142.5337  141.2405  169.8460 H       1  UNL1        0.1734
     29 S         140.4137  140.8758  169.5847 S.O2    1  UNL1        0.0558
     30 C         139.0148  140.5212  169.9936 C.3     1  UNL1        0.1996
     31 O         140.0206  142.3204  169.4928 O.2     1  UNL1       -0.1544
     32 O         140.8067  139.4311  169.6766 O.2     1  UNL1       -0.1544
@<TRIPOS>BOND
     1    13    14    1
     2    14     7    1
     3     7     8   ar
     4     8     9   ar
     5     9    10   ar
     6    10     6    1
     7     6     5    1
     8     5     3    1
     9     3     4    1
    10     3     2    1
    11     2     1    1
    12     1    17    1
    13    17    18    1
    14    18    19   ar
    15    19    20   ar
    16    20    21   ar
    17    21    27    1
    18    27    29    1
    19    29    30    1
    20    29    31    2
    21    29    32    2
    22    21    22   ar
    23    22    23   ar
    24    23    24    1
    25    10    11   ar
    26    11    12   ar
    27    12    15    1
    28    15    16    1
    29    12     7   ar
    30    23    18   ar
    31    27    28    1
    32    24    25    1
    33    24    26    1
