@<TRIPOS>MOLECULE
*****
 36 40 0 0 0
SMALL
GASTEIGER

@<TRIPOS>ATOM
      1 C         139.3537  142.1869  163.7831 C.ar    1  UNL1        0.0878
      2 C         138.7015  143.5374  163.8096 C.ar    1  UNL1        0.1543
      3 F         137.8130  143.9189  164.9563 F       1  UNL1       -0.2028
      4 C         138.9379  144.5065  162.6893 C.ar    1  UNL1        0.0356
      5 C         139.8264  144.1250  161.5426 C.ar    1  UNL1        0.0580
      6 C         140.0628  145.0942  160.4223 C.ar    1  UNL1        0.1996
      7 O         139.4106  146.4447  160.4488 O.2     1  UNL1       -0.2864
      8 C         140.9513  144.7128  159.2756 C.ar    1  UNL1        0.0701
      9 C         141.6035  143.3622  159.2491 C.ar    1  UNL1        0.0801
     10 N         141.3671  142.3931  160.3694 N.ar    1  UNL1       -0.3270
     11 C         140.4786  142.7745  161.5161 C.ar    1  UNL1        0.0750
     12 C         140.2422  141.8055  162.6364 C.ar    1  UNL1        0.0890
     13 CL        140.8944  140.4549  162.6099 Cl      1  UNL1       -0.0794
     14 C         139.2127  140.1237  167.0678 C.3     1  UNL1        0.0929
     15 C         138.2947  139.3292  166.1868 C.3     1  UNL1        0.0427
     16 C         138.2358  140.0054  164.8492 C.3     1  UNL1        0.0927
     17 N         139.1173  141.2178  164.9034 N.pl3   1  UNL1       -0.3033
     18 C         139.7211  141.2909  166.2746 C.3     1  UNL1        0.1104
     19 C         140.9985  139.7428  168.9160 C.2     1  UNL1        0.2245
     20 O         142.0875  139.9959  167.9159 O.2     1  UNL1       -0.2750
     21 N         139.5611  139.8067  168.4919 N.am    1  UNL1       -0.3042
     22 H         138.8464  139.6406  169.1482 H       1  UNL1        0.1494
     23 C         141.3469  139.4258  170.3401 C.3     1  UNL1        0.1114
     24 C         141.4884  140.5331  171.3420 C.3     1  UNL1        0.1401
     25 C         143.3326  142.7702  169.8441 C.3     1  UNL1        0.0754
     26 C         141.9141  142.9555  170.2951 C.ar    1  UNL1        0.1613
     27 N         141.0942  144.2015  170.1368 N.ar    1  UNL1       -0.1127
     28 N         139.7398  143.9434  170.7275 N.ar    1  UNL1       -0.0230
     29 N         139.7226  142.5377  171.2509 N.ar    1  UNL1       -0.0432
     30 N         141.0664  141.9272  170.9836 N.ar    1  UNL1       -0.2165
     31 C         141.1876  145.6818  158.1553 C.2     1  UNL1        0.0774
     32 O         142.5512  146.2720  157.9493 O.co2   1  UNL1       -0.5444
     33 O         140.0604  146.0607  157.2410 O.co2   1  UNL1       -0.5444
     34 C         142.0193  141.0426  160.3429 C.3     1  UNL1        0.0857
     35 C         143.1789  140.1532  160.6808 C.3     1  UNL1        0.0245
     36 C         141.9893  139.5929  159.9591 C.3     1  UNL1        0.0245
@<TRIPOS>UNITY_ATOM_ATTR
32 1
charge -1
@<TRIPOS>BOND
     1    25    26    1
     2    26    27   ar
     3    27    28   ar
     4    28    29   ar
     5    29    30   ar
     6    30    24    1
     7    24    23    1
     8    23    19    1
     9    19    20    2
    10    19    21   am
    11    21    14    1
    12    14    15    1
    13    15    16    1
    14    16    17    1
    15    17     1    1
    16     1     2   ar
    17     2     3    1
    18     2     4   ar
    19     4     5   ar
    20     5     6   ar
    21     6     7    2
    22     6     8   ar
    23     8    31    1
    24    31    32   ar
    25    31    33   ar
    26     8     9   ar
    27     9    10   ar
    28    10    34    1
    29    34    35    1
    30    35    36    1
    31    10    11   ar
    32    11    12   ar
    33    12    13    1
    34    17    18    1
    35    30    26   ar
    36    18    14    1
    37    12     1   ar
    38    11     5   ar
    39    36    34    1
    40    21    22    1
@<TRIPOS>MOLECULE
*****
 36 40 0 0 0
SMALL
GASTEIGER

@<TRIPOS>ATOM
      1 C         142.9646  139.5891  164.0992 C.ar    1  UNL1        0.0878
      2 C         143.9880  139.0993  165.0804 C.ar    1  UNL1        0.1543
      3 F         145.3137  138.5948  164.5924 F       1  UNL1       -0.2028
      4 C         143.6857  139.1140  166.5495 C.ar    1  UNL1        0.0356
      5 C         142.3600  139.6184  167.0375 C.ar    1  UNL1        0.0580
      6 C         142.0578  139.6331  168.5067 C.ar    1  UNL1        0.1996
      7 O         143.0812  139.1433  169.4878 O.2     1  UNL1       -0.2864
      8 C         140.7321  140.1375  168.9946 C.ar    1  UNL1        0.0701
      9 C         139.7087  140.6273  168.0134 C.ar    1  UNL1        0.0801
     10 N         140.0110  140.6127  166.5442 N.ar    1  UNL1       -0.3270
     11 C         141.3367  140.1082  166.0563 C.ar    1  UNL1        0.0750
     12 C         141.6389  140.0935  164.5872 C.ar    1  UNL1        0.0890
     13 CL        140.6155  140.5834  163.6059 Cl      1  UNL1       -0.0794
     14 C         143.4232  138.8707  160.3125 C.3     1  UNL1        0.0929
     15 C         144.0407  140.2330  160.4259 C.3     1  UNL1        0.0427
     16 C         143.9440  140.6679  161.8582 C.3     1  UNL1        0.0927
     17 N         143.2669  139.5744  162.6300 N.pl3   1  UNL1       -0.3033
     18 C         142.9450  138.4637  161.6747 C.3     1  UNL1        0.1104
     19 C         141.9963  137.9926  158.3268 C.2     1  UNL1        0.2245
     20 O         140.8062  138.7398  158.8516 O.2     1  UNL1       -0.2750
     21 N         143.3048  138.0581  159.0572 N.am    1  UNL1       -0.3042
     22 H         144.0859  137.5676  158.7128 H       1  UNL1        0.1494
     23 C         141.8779  137.1800  157.0715 C.3     1  UNL1        0.1114
     24 C         142.9669  136.2199  156.6941 C.3     1  UNL1        0.1401
     25 C         141.2621  134.8273  154.2851 C.3     1  UNL1        0.0754
     26 C         141.8801  134.1169  155.4527 C.ar    1  UNL1        0.1613
     27 N         141.8229  132.6417  155.7179 N.ar    1  UNL1       -0.1127
     28 N         142.5712  132.3700  156.9892 N.ar    1  UNL1       -0.0230
     29 N         143.0908  133.6774  157.5097 N.ar    1  UNL1       -0.0432
     30 N         142.6637  134.7570  156.5600 N.ar    1  UNL1       -0.2165
     31 C         140.4298  140.1522  170.4637 C.2     1  UNL1        0.0774
     32 O         141.3134  140.9175  171.4037 O.co2   1  UNL1       -0.5444
     33 O         139.2438  139.4015  170.9930 O.co2   1  UNL1       -0.5444
     34 C         138.9876  141.1025  165.5631 C.3     1  UNL1        0.0857
     35 C         137.8787  140.8206  164.5930 C.3     1  UNL1        0.0245
     36 C         138.3238  142.2326  164.8337 C.3     1  UNL1        0.0245
@<TRIPOS>UNITY_ATOM_ATTR
32 1
charge -1
@<TRIPOS>BOND
     1    25    26    1
     2    26    27   ar
     3    27    28   ar
     4    28    29   ar
     5    29    30   ar
     6    30    24    1
     7    24    23    1
     8    23    19    1
     9    19    20    2
    10    19    21   am
    11    21    14    1
    12    14    15    1
    13    15    16    1
    14    16    17    1
    15    17     1    1
    16     1     2   ar
    17     2     3    1
    18     2     4   ar
    19     4     5   ar
    20     5     6   ar
    21     6     7    2
    22     6     8   ar
    23     8    31    1
    24    31    32   ar
    25    31    33   ar
    26     8     9   ar
    27     9    10   ar
    28    10    34    1
    29    34    35    1
    30    35    36    1
    31    10    11   ar
    32    11    12   ar
    33    12    13    1
    34    17    18    1
    35    30    26   ar
    36    18    14    1
    37    12     1   ar
    38    11     5   ar
    39    36    34    1
    40    21    22    1
@<TRIPOS>MOLECULE
*****
 36 40 0 0 0
SMALL
GASTEIGER

@<TRIPOS>ATOM
      1 C         139.9571  139.5878  162.8454 C.ar    1  UNL1        0.0878
      2 C         138.7750  138.8390  163.3856 C.ar    1  UNL1        0.1543
      3 F         137.8633  138.1012  162.4504 F       1  UNL1       -0.2028
      4 C         138.5046  138.8280  164.8609 C.ar    1  UNL1        0.0356
      5 C         139.4163  139.5658  165.7961 C.ar    1  UNL1        0.0580
      6 C         139.1458  139.5547  167.2715 C.ar    1  UNL1        0.1996
      7 O         137.9637  138.8059  167.8117 O.2     1  UNL1       -0.2864
      8 C         140.0575  140.2925  168.2067 C.ar    1  UNL1        0.0701
      9 C         141.2396  141.0413  167.6664 C.ar    1  UNL1        0.0801
     10 N         141.5100  141.0524  166.1910 N.ar    1  UNL1       -0.3270
     11 C         140.5984  140.3146  165.2559 C.ar    1  UNL1        0.0750
     12 C         140.8688  140.3256  163.7805 C.ar    1  UNL1        0.0890
     13 CL        142.0509  141.0745  163.2403 Cl      1  UNL1       -0.0794
     14 C         140.7529  138.8739  159.1140 C.3     1  UNL1        0.0929
     15 C         140.5347  140.3578  159.0852 C.3     1  UNL1        0.0427
     16 C         140.2100  140.8058  160.4794 C.3     1  UNL1        0.0927
     17 N         140.2276  139.5989  161.3700 N.pl3   1  UNL1       -0.3033
     18 C         140.5631  138.4050  160.5261 C.3     1  UNL1        0.1104
     19 C         142.5034  137.9933  157.4081 C.2     1  UNL1        0.2245
     20 O         143.5598  138.8390  158.0554 O.2     1  UNL1       -0.2750
     21 N         141.1000  138.0108  157.9374 N.am    1  UNL1       -0.3042
     22 H         140.4067  137.4557  157.5126 H       1  UNL1        0.1494
     23 C         142.8505  137.1301  156.2315 C.3     1  UNL1        0.1114
     24 C         143.6378  135.8692  156.4326 C.3     1  UNL1        0.1401
     25 C         144.6053  133.1216  157.9036 C.3     1  UNL1        0.0754
     26 C         143.3987  133.2738  157.0256 C.ar    1  UNL1        0.1613
     27 N         142.4251  132.1898  156.6696 N.ar    1  UNL1       -0.1127
     28 N         141.3785  132.7828  155.7734 N.ar    1  UNL1       -0.0230
     29 N         141.7054  134.2333  155.5756 N.ar    1  UNL1       -0.0432
     30 N         142.9540  134.5367  156.3495 N.ar    1  UNL1       -0.2165
     31 C         139.7870  140.2814  169.6820 C.2     1  UNL1        0.0774
     32 O         140.5458  139.3466  170.5766 O.co2   1  UNL1       -0.5444
     33 O         138.7579  141.2053  170.2628 O.co2   1  UNL1       -0.5444
     34 C         142.6921  141.8012  165.6508 C.3     1  UNL1        0.0857
     35 C         144.0900  141.8041  165.1068 C.3     1  UNL1        0.0245
     36 C         143.3418  143.0952  165.2592 C.3     1  UNL1        0.0245
@<TRIPOS>UNITY_ATOM_ATTR
32 1
charge -1
@<TRIPOS>BOND
     1    25    26    1
     2    26    27   ar
     3    27    28   ar
     4    28    29   ar
     5    29    30   ar
     6    30    24    1
     7    24    23    1
     8    23    19    1
     9    19    20    2
    10    19    21   am
    11    21    14    1
    12    14    15    1
    13    15    16    1
    14    16    17    1
    15    17     1    1
    16     1     2   ar
    17     2     3    1
    18     2     4   ar
    19     4     5   ar
    20     5     6   ar
    21     6     7    2
    22     6     8   ar
    23     8    31    1
    24    31    32   ar
    25    31    33   ar
    26     8     9   ar
    27     9    10   ar
    28    10    34    1
    29    34    35    1
    30    35    36    1
    31    10    11   ar
    32    11    12   ar
    33    12    13    1
    34    17    18    1
    35    30    26   ar
    36    18    14    1
    37    12     1   ar
    38    11     5   ar
    39    36    34    1
    40    21    22    1
@<TRIPOS>MOLECULE
*****
 36 40 0 0 0
SMALL
GASTEIGER

@<TRIPOS>ATOM
      1 C         139.4114  139.8461  163.2758 C.ar    1  UNL1        0.0878
      2 C         138.9192  138.7966  164.2277 C.ar    1  UNL1        0.1543
      3 F         138.3422  137.5165  163.6999 F       1  UNL1       -0.2028
      4 C         139.0041  139.0270  165.7074 C.ar    1  UNL1        0.0356
      5 C         139.5812  140.3071  166.2352 C.ar    1  UNL1        0.0580
      6 C         139.6660  140.5375  167.7150 C.ar    1  UNL1        0.1996
      7 O         139.1739  139.4880  168.6669 O.2     1  UNL1       -0.2864
      8 C         140.2431  141.8175  168.2428 C.ar    1  UNL1        0.0701
      9 C         140.7353  142.8671  167.2908 C.ar    1  UNL1        0.0801
     10 N         140.6504  142.6366  165.8111 N.ar    1  UNL1       -0.3270
     11 C         140.0733  141.3566  165.2833 C.ar    1  UNL1        0.0750
     12 C         139.9885  141.1261  163.8036 C.ar    1  UNL1        0.0890
     13 CL        140.4806  142.1757  162.8515 Cl      1  UNL1       -0.0794
     14 C         138.5678  139.6701  159.4912 C.3     1  UNL1        0.0929
     15 C         139.8239  138.8520  159.5465 C.3     1  UNL1        0.0427
     16 C         140.2928  138.8184  160.9709 C.3     1  UNL1        0.0927
     17 N         139.3265  139.6156  161.7960 N.pl3   1  UNL1       -0.3033
     18 C         138.2604  140.1420  160.8814 C.3     1  UNL1        0.1104
     19 C         137.7312  141.3547  157.6989 C.2     1  UNL1        0.2245
     20 O         138.5086  142.4505  158.3660 O.2     1  UNL1       -0.2750
     21 N         137.7608  139.9645  158.2615 N.am    1  UNL1       -0.3042
     22 H         137.2506  139.2453  157.8237 H       1  UNL1        0.1494
     23 C         136.9242  141.6490  156.4692 C.3     1  UNL1        0.1114
     24 C         136.0466  140.5870  155.8760 C.3     1  UNL1        0.1401
     25 C         133.2293  141.5309  154.5265 C.3     1  UNL1        0.0754
     26 C         133.3813  140.7807  155.8165 C.ar    1  UNL1        0.1613
     27 N         132.2651  140.3326  156.7126 N.ar    1  UNL1       -0.1127
     28 N         132.8702  139.6218  157.8867 N.ar    1  UNL1       -0.0230
     29 N         134.3604  139.6306  157.7163 N.ar    1  UNL1       -0.0432
     30 N         134.6763  140.3468  156.4367 N.ar    1  UNL1       -0.2165
     31 C         140.3280  142.0480  169.7225 C.2     1  UNL1        0.0774
     32 O         139.6855  143.2593  170.3310 O.co2   1  UNL1       -0.5444
     33 O         141.0553  141.0673  170.5939 O.co2   1  UNL1       -0.5444
     34 C         141.1425  143.6861  164.8591 C.3     1  UNL1        0.0857
     35 C         140.8685  144.8516  163.9554 C.3     1  UNL1        0.0245
     36 C         142.2690  144.3386  164.1140 C.3     1  UNL1        0.0245
@<TRIPOS>UNITY_ATOM_ATTR
32 1
charge -1
@<TRIPOS>BOND
     1    25    26    1
     2    26    27   ar
     3    27    28   ar
     4    28    29   ar
     5    29    30   ar
     6    30    24    1
     7    24    23    1
     8    23    19    1
     9    19    20    2
    10    19    21   am
    11    21    14    1
    12    14    15    1
    13    15    16    1
    14    16    17    1
    15    17     1    1
    16     1     2   ar
    17     2     3    1
    18     2     4   ar
    19     4     5   ar
    20     5     6   ar
    21     6     7    2
    22     6     8   ar
    23     8    31    1
    24    31    32   ar
    25    31    33   ar
    26     8     9   ar
    27     9    10   ar
    28    10    34    1
    29    34    35    1
    30    35    36    1
    31    10    11   ar
    32    11    12   ar
    33    12    13    1
    34    17    18    1
    35    30    26   ar
    36    18    14    1
    37    12     1   ar
    38    11     5   ar
    39    36    34    1
    40    21    22    1
@<TRIPOS>MOLECULE
*****
 36 40 0 0 0
SMALL
GASTEIGER

@<TRIPOS>ATOM
      1 C         142.9252  141.2052  164.6198 C.ar    1  UNL1        0.0878
      2 C         143.8439  142.0778  165.4226 C.ar    1  UNL1        0.1543
      3 F         145.1207  142.5803  164.8166 F       1  UNL1       -0.2028
      4 C         143.4858  142.4479  166.8314 C.ar    1  UNL1        0.0356
      5 C         142.2090  141.9454  167.4374 C.ar    1  UNL1        0.0580
      6 C         141.8509  142.3156  168.8462 C.ar    1  UNL1        0.1996
      7 O         142.7696  143.1882  169.6490 O.2     1  UNL1       -0.2864
      8 C         140.5741  141.8131  169.4522 C.ar    1  UNL1        0.0701
      9 C         139.6554  140.9404  168.6494 C.ar    1  UNL1        0.0801
     10 N         140.0135  140.5703  167.2406 N.ar    1  UNL1       -0.3270
     11 C         141.2903  141.0728  166.6346 C.ar    1  UNL1        0.0750
     12 C         141.6484  140.7027  165.2258 C.ar    1  UNL1        0.0890
     13 CL        140.7297  139.8300  164.4230 Cl      1  UNL1       -0.0794
     14 C         143.5424  140.9118  160.7990 C.3     1  UNL1        0.0929
     15 C         144.1264  139.6191  161.2870 C.3     1  UNL1        0.0427
     16 C         143.9663  139.5717  162.7777 C.3     1  UNL1        0.0927
     17 N         143.2833  140.8350  163.2109 N.pl3   1  UNL1       -0.3033
     18 C         143.0214  141.6632  161.9880 C.3     1  UNL1        0.1104
     19 C         142.4561  140.8097  158.4411 C.2     1  UNL1        0.2245
     20 O         141.4769  139.7869  158.9365 O.2     1  UNL1       -0.2750
     21 N         143.4888  141.3721  159.3724 N.am    1  UNL1       -0.3042
     22 H         144.1314  142.0433  159.0472 H       1  UNL1        0.1494
     23 C         142.4025  141.2700  157.0145 C.3     1  UNL1        0.1114
     24 C         143.1657  142.4899  156.5908 C.3     1  UNL1        0.1401
     25 C         142.0224  144.8794  154.6850 C.3     1  UNL1        0.0754
     26 C         142.1979  144.9463  156.1732 C.ar    1  UNL1        0.1613
     27 N         141.8788  146.1232  157.0466 N.ar    1  UNL1       -0.1127
     28 N         142.2070  145.7523  158.4624 N.ar    1  UNL1       -0.0230
     29 N         142.7291  144.3460  158.4640 N.ar    1  UNL1       -0.0432
     30 N         142.7234  143.8479  157.0492 N.ar    1  UNL1       -0.2165
     31 C         140.2160  142.1832  170.8610 C.2     1  UNL1        0.0774
     32 O         139.3162  143.3544  171.1231 O.co2   1  UNL1       -0.5444
     33 O         140.7576  141.3821  172.0078 O.co2   1  UNL1       -0.5444
     34 C         139.0948  139.6977  166.4378 C.3     1  UNL1        0.0857
     35 C         138.5502  138.3388  166.1110 C.3     1  UNL1        0.0245
     36 C         138.0482  139.5450  165.3743 C.3     1  UNL1        0.0245
@<TRIPOS>UNITY_ATOM_ATTR
32 1
charge -1
@<TRIPOS>BOND
     1    25    26    1
     2    26    27   ar
     3    27    28   ar
     4    28    29   ar
     5    29    30   ar
     6    30    24    1
     7    24    23    1
     8    23    19    1
     9    19    20    2
    10    19    21   am
    11    21    14    1
    12    14    15    1
    13    15    16    1
    14    16    17    1
    15    17     1    1
    16     1     2   ar
    17     2     3    1
    18     2     4   ar
    19     4     5   ar
    20     5     6   ar
    21     6     7    2
    22     6     8   ar
    23     8    31    1
    24    31    32   ar
    25    31    33   ar
    26     8     9   ar
    27     9    10   ar
    28    10    34    1
    29    34    35    1
    30    35    36    1
    31    10    11   ar
    32    11    12   ar
    33    12    13    1
    34    17    18    1
    35    30    26   ar
    36    18    14    1
    37    12     1   ar
    38    11     5   ar
    39    36    34    1
    40    21    22    1
@<TRIPOS>MOLECULE
*****
 36 40 0 0 0
SMALL
GASTEIGER

@<TRIPOS>ATOM
      1 C         142.8083  140.9649  164.6849 C.ar    1  UNL1        0.0878
      2 C         143.7460  141.8612  165.4380 C.ar    1  UNL1        0.1543
      3 F         145.0245  142.3161  164.7986 F       1  UNL1       -0.2028
      4 C         143.4054  142.3027  166.8305 C.ar    1  UNL1        0.0356
      5 C         142.1270  141.8479  167.4698 C.ar    1  UNL1        0.0580
      6 C         141.7863  142.2894  168.8624 C.ar    1  UNL1        0.1996
      7 O         142.7241  143.1857  169.6155 O.2     1  UNL1       -0.2864
      8 C         140.5079  141.8346  169.5017 C.ar    1  UNL1        0.0701
      9 C         139.5701  140.9382  168.7485 C.ar    1  UNL1        0.0801
     10 N         139.9108  140.4967  167.3561 N.ar    1  UNL1       -0.3270
     11 C         141.1892  140.9516  166.7167 C.ar    1  UNL1        0.0750
     12 C         141.5299  140.5101  165.3243 C.ar    1  UNL1        0.0890
     13 CL        140.5921  139.6137  164.5711 Cl      1  UNL1       -0.0794
     14 C         143.2599  140.4045  160.8707 C.3     1  UNL1        0.0929
     15 C         144.0862  139.2835  161.4283 C.3     1  UNL1        0.0427
     16 C         144.0176  139.3571  162.9249 C.3     1  UNL1        0.0927
     17 N         143.1489  140.5234  163.2924 N.pl3   1  UNL1       -0.3033
     18 C         142.6807  141.1707  162.0228 C.3     1  UNL1        0.1104
     19 C         143.8608  141.7763  158.7477 C.2     1  UNL1        0.2245
     20 O         144.8818  142.5448  159.5333 O.2     1  UNL1       -0.2750
     21 N         143.0498  140.7062  159.4165 N.am    1  UNL1       -0.3042
     22 H         142.3797  140.2018  158.9010 H       1  UNL1        0.1494
     23 C         143.6507  142.0780  157.2935 C.3     1  UNL1        0.1114
     24 C         142.9570  141.0810  156.4133 C.3     1  UNL1        0.1401
     25 C         141.5406  138.2267  157.1177 C.3     1  UNL1        0.0754
     26 C         142.9060  138.4108  156.5246 C.ar    1  UNL1        0.1613
     27 N         143.8600  137.3152  156.1512 N.ar    1  UNL1       -0.1127
     28 N         145.1007  137.9501  155.5965 N.ar    1  UNL1       -0.0230
     29 N         144.9134  139.4380  155.6272 N.ar    1  UNL1       -0.0432
     30 N         143.5570  139.7227  156.2008 N.ar    1  UNL1       -0.2165
     31 C         140.1672  142.2760  170.8942 C.2     1  UNL1        0.0774
     32 O         139.2851  143.4703  171.1077 O.co2   1  UNL1       -0.5444
     33 O         140.7087  141.5232  172.0733 O.co2   1  UNL1       -0.5444
     34 C         138.9730  139.6004  166.6030 C.3     1  UNL1        0.0857
     35 C         138.2941  138.2727  166.4413 C.3     1  UNL1        0.0245
     36 C         138.0278  139.3756  165.4602 C.3     1  UNL1        0.0245
@<TRIPOS>UNITY_ATOM_ATTR
32 1
charge -1
@<TRIPOS>BOND
     1    25    26    1
     2    26    27   ar
     3    27    28   ar
     4    28    29   ar
     5    29    30   ar
     6    30    24    1
     7    24    23    1
     8    23    19    1
     9    19    20    2
    10    19    21   am
    11    21    14    1
    12    14    15    1
    13    15    16    1
    14    16    17    1
    15    17     1    1
    16     1     2   ar
    17     2     3    1
    18     2     4   ar
    19     4     5   ar
    20     5     6   ar
    21     6     7    2
    22     6     8   ar
    23     8    31    1
    24    31    32   ar
    25    31    33   ar
    26     8     9   ar
    27     9    10   ar
    28    10    34    1
    29    34    35    1
    30    35    36    1
    31    10    11   ar
    32    11    12   ar
    33    12    13    1
    34    17    18    1
    35    30    26   ar
    36    18    14    1
    37    12     1   ar
    38    11     5   ar
    39    36    34    1
    40    21    22    1
@<TRIPOS>MOLECULE
*****
 36 40 0 0 0
SMALL
GASTEIGER

@<TRIPOS>ATOM
      1 C         142.6330  140.1305  162.5897 C.ar    1  UNL1        0.0878
      2 C         143.8891  140.0841  161.7712 C.ar    1  UNL1        0.1543
      3 F         145.1944  140.5095  162.3757 F       1  UNL1       -0.2028
      4 C         143.8400  139.6122  160.3482 C.ar    1  UNL1        0.0356
      5 C         142.5348  139.1868  159.7437 C.ar    1  UNL1        0.0580
      6 C         142.4857  138.7149  158.3206 C.ar    1  UNL1        0.1996
      7 O         143.7419  138.6685  157.5022 O.2     1  UNL1       -0.2864
      8 C         141.1805  138.2895  157.7162 C.ar    1  UNL1        0.0701
      9 C         139.9244  138.3359  158.5347 C.ar    1  UNL1        0.0801
     10 N         139.9735  138.8078  159.9577 N.ar    1  UNL1       -0.3270
     11 C         141.2787  139.2332  160.5622 C.ar    1  UNL1        0.0750
     12 C         141.3278  139.7050  161.9852 C.ar    1  UNL1        0.0890
     13 CL        140.0716  139.7515  162.8037 Cl      1  UNL1       -0.0794
     14 C         142.6983  140.6193  166.4397 C.3     1  UNL1        0.0929
     15 C         142.8168  142.0374  165.9654 C.3     1  UNL1        0.0427
     16 C         142.8068  142.0269  164.4654 C.3     1  UNL1        0.0927
     17 N         142.6821  140.6023  164.0127 N.pl3   1  UNL1       -0.3033
     18 C         142.6150  139.7324  165.2329 C.3     1  UNL1        0.1104
     19 C         141.3547  139.9313  168.5543 C.2     1  UNL1        0.2245
     20 O         140.0710  140.1471  167.8088 O.2     1  UNL1       -0.2750
     21 N         142.6683  140.1675  167.8697 N.am    1  UNL1       -0.3042
     22 H         143.5108  140.0259  168.3589 H       1  UNL1        0.1494
     23 C         141.3247  139.4795  169.9843 C.3     1  UNL1        0.1114
     24 C         141.4083  140.4881  171.0914 C.3     1  UNL1        0.1401
     25 C         143.3902  142.8973  170.1337 C.3     1  UNL1        0.0754
     26 C         141.9191  143.0192  170.4005 C.ar    1  UNL1        0.1613
     27 N         141.1009  144.2699  170.2740 N.ar    1  UNL1       -0.1127
     28 N         139.6842  143.9355  170.6360 N.ar    1  UNL1       -0.0230
     29 N         139.6269  142.4781  170.9862 N.ar    1  UNL1       -0.0432
     30 N         141.0082  141.9118  170.8407 N.ar    1  UNL1       -0.2165
     31 C         141.1314  137.8177  156.2932 C.2     1  UNL1        0.0774
     32 O         141.3625  136.3702  155.9746 O.co2   1  UNL1       -0.5444
     33 O         140.8513  138.7933  155.1887 O.co2   1  UNL1       -0.5444
     34 C         138.7174  138.8542  160.7762 C.3     1  UNL1        0.0857
     35 C         137.7934  138.2222  161.7747 C.3     1  UNL1        0.0245
     36 C         137.4656  139.5664  161.1954 C.3     1  UNL1        0.0245
@<TRIPOS>UNITY_ATOM_ATTR
32 1
charge -1
@<TRIPOS>BOND
     1    25    26    1
     2    26    27   ar
     3    27    28   ar
     4    28    29   ar
     5    29    30   ar
     6    30    24    1
     7    24    23    1
     8    23    19    1
     9    19    20    2
    10    19    21   am
    11    21    14    1
    12    14    15    1
    13    15    16    1
    14    16    17    1
    15    17     1    1
    16     1     2   ar
    17     2     3    1
    18     2     4   ar
    19     4     5   ar
    20     5     6   ar
    21     6     7    2
    22     6     8   ar
    23     8    31    1
    24    31    32   ar
    25    31    33   ar
    26     8     9   ar
    27     9    10   ar
    28    10    34    1
    29    34    35    1
    30    35    36    1
    31    10    11   ar
    32    11    12   ar
    33    12    13    1
    34    17    18    1
    35    30    26   ar
    36    18    14    1
    37    12     1   ar
    38    11     5   ar
    39    36    34    1
    40    21    22    1
@<TRIPOS>MOLECULE
*****
 36 40 0 0 0
SMALL
GASTEIGER

@<TRIPOS>ATOM
      1 C         140.7497  139.5257  164.3479 C.ar    1  UNL1        0.0878
      2 C         141.5274  138.6167  165.2527 C.ar    1  UNL1        0.1543
      3 F         141.9363  137.2545  164.7761 F       1  UNL1       -0.2028
      4 C         141.8962  139.0698  166.6342 C.ar    1  UNL1        0.0356
      5 C         141.4873  140.4320  167.1109 C.ar    1  UNL1        0.0580
      6 C         141.8562  140.8852  168.4925 C.ar    1  UNL1        0.1996
      7 O         142.6338  139.9761  169.3973 O.2     1  UNL1       -0.2864
      8 C         141.4473  142.2474  168.9691 C.ar    1  UNL1        0.0701
      9 C         140.6696  143.1565  168.0642 C.ar    1  UNL1        0.0801
     10 N         140.3008  142.7033  166.6827 N.ar    1  UNL1       -0.3270
     11 C         140.7097  141.3411  166.2060 C.ar    1  UNL1        0.0750
     12 C         140.3409  140.8879  164.8245 C.ar    1  UNL1        0.0890
     13 CL        139.5632  141.7970  163.9196 Cl      1  UNL1       -0.0794
     14 C         140.4060  138.7413  160.5621 C.3     1  UNL1        0.0929
     15 C         139.2208  138.0094  161.1186 C.3     1  UNL1        0.0427
     16 C         139.2053  138.2141  162.6044 C.3     1  UNL1        0.0927
     17 N         140.3809  139.0726  162.9663 N.pl3   1  UNL1       -0.3033
     18 C         141.1230  139.3984  161.7041 C.3     1  UNL1        0.1104
     19 C         142.0199  138.0662  158.6412 C.2     1  UNL1        0.2245
     20 O         142.8372  137.2639  159.6099 O.2     1  UNL1       -0.2750
     21 N         140.8042  138.8049  159.1173 N.am    1  UNL1       -0.3042
     22 H         140.2678  139.3315  158.4816 H       1  UNL1        0.1494
     23 C         142.4181  138.1299  157.1965 C.3     1  UNL1        0.1114
     24 C         143.3326  137.0877  156.6240 C.3     1  UNL1        0.1401
     25 C         141.0467  135.7504  154.7173 C.3     1  UNL1        0.0754
     26 C         141.8680  135.0312  155.7460 C.ar    1  UNL1        0.1613
     27 N         141.7829  133.5712  156.0788 N.ar    1  UNL1       -0.1127
     28 N         142.7810  133.2835  157.1610 N.ar    1  UNL1       -0.0230
     29 N         143.4830  134.5658  157.4969 N.ar    1  UNL1       -0.0432
     30 N         142.9187  135.6460  156.6224 N.ar    1  UNL1       -0.2165
     31 C         141.8161  142.7006  170.3506 C.2     1  UNL1        0.0774
     32 O         142.9680  143.6407  170.5491 O.co2   1  UNL1       -0.5444
     33 O         141.0330  142.2136  171.5338 O.co2   1  UNL1       -0.5444
     34 C         139.5231  143.6124  165.7778 C.3     1  UNL1        0.0857
     35 C         139.4907  144.6903  164.7352 C.3     1  UNL1        0.0245
     36 C         138.2086  144.1091  165.2532 C.3     1  UNL1        0.0245
@<TRIPOS>UNITY_ATOM_ATTR
32 1
charge -1
@<TRIPOS>BOND
     1    25    26    1
     2    26    27   ar
     3    27    28   ar
     4    28    29   ar
     5    29    30   ar
     6    30    24    1
     7    24    23    1
     8    23    19    1
     9    19    20    2
    10    19    21   am
    11    21    14    1
    12    14    15    1
    13    15    16    1
    14    16    17    1
    15    17     1    1
    16     1     2   ar
    17     2     3    1
    18     2     4   ar
    19     4     5   ar
    20     5     6   ar
    21     6     7    2
    22     6     8   ar
    23     8    31    1
    24    31    32   ar
    25    31    33   ar
    26     8     9   ar
    27     9    10   ar
    28    10    34    1
    29    34    35    1
    30    35    36    1
    31    10    11   ar
    32    11    12   ar
    33    12    13    1
    34    17    18    1
    35    30    26   ar
    36    18    14    1
    37    12     1   ar
    38    11     5   ar
    39    36    34    1
    40    21    22    1
@<TRIPOS>MOLECULE
*****
 36 40 0 0 0
SMALL
GASTEIGER

@<TRIPOS>ATOM
      1 C         141.9062  142.5220  163.9642 C.ar    1  UNL1        0.0878
      2 C         143.0075  143.2991  164.6223 C.ar    1  UNL1        0.1543
      3 F         143.7807  144.3163  163.8365 F       1  UNL1       -0.2028
      4 C         143.3355  143.0591  166.0661 C.ar    1  UNL1        0.0356
      5 C         142.5622  142.0419  166.8519 C.ar    1  UNL1        0.0580
      6 C         142.8903  141.8020  168.2958 C.ar    1  UNL1        0.1996
      7 O         143.9916  142.5791  168.9539 O.2     1  UNL1       -0.2864
      8 C         142.1170  140.7848  169.0816 C.ar    1  UNL1        0.0701
      9 C         141.0157  140.0076  168.4234 C.ar    1  UNL1        0.0801
     10 N         140.6876  140.2476  166.9796 N.ar    1  UNL1       -0.3270
     11 C         141.4609  141.2648  166.1938 C.ar    1  UNL1        0.0750
     12 C         141.1329  141.5048  164.7499 C.ar    1  UNL1        0.0890
     13 CL        140.0315  140.7276  164.0918 Cl      1  UNL1       -0.0794
     14 C         140.6856  143.7447  160.4884 C.3     1  UNL1        0.0929
     15 C         141.4609  142.5180  160.1084 C.3     1  UNL1        0.0427
     16 C         142.0124  141.9107  161.3641 C.3     1  UNL1        0.0927
     17 N         141.5781  142.7620  162.5203 N.pl3   1  UNL1       -0.3033
     18 C         140.7581  143.8954  161.9790 C.3     1  UNL1        0.1104
     19 C         140.7387  145.4687  158.5455 C.2     1  UNL1        0.2245
     20 O         142.2340  145.3623  158.4920 O.2     1  UNL1       -0.2750
     21 N         139.9645  144.6598  159.5437 N.am    1  UNL1       -0.3042
     22 H         138.9831  144.7296  159.5788 H       1  UNL1        0.1494
     23 C         140.0176  146.3838  157.6007 C.3     1  UNL1        0.1114
     24 C         139.6324  145.8992  156.2344 C.3     1  UNL1        0.1401
     25 C         138.7959  148.9412  155.4005 C.3     1  UNL1        0.0754
     26 C         139.7154  148.0379  154.6332 C.ar    1  UNL1        0.1613
     27 N         140.4117  148.3743  153.3481 N.ar    1  UNL1       -0.1127
     28 N         141.2266  147.1839  152.9370 N.ar    1  UNL1       -0.0230
     29 N         141.0338  146.1118  153.9683 N.ar    1  UNL1       -0.0432
     30 N         140.0998  146.6396  155.0166 N.ar    1  UNL1       -0.2165
     31 C         142.4450  140.5448  170.5254 C.2     1  UNL1        0.0774
     32 O         143.5672  139.6210  170.8961 O.co2   1  UNL1       -0.5444
     33 O         141.6508  141.2285  171.5987 O.co2   1  UNL1       -0.5444
     34 C         139.5863  139.4705  166.3215 C.3     1  UNL1        0.0857
     35 C         139.1393  138.3312  165.4542 C.3     1  UNL1        0.0245
     36 C         138.1259  139.2636  166.0489 C.3     1  UNL1        0.0245
@<TRIPOS>UNITY_ATOM_ATTR
32 1
charge -1
@<TRIPOS>BOND
     1    25    26    1
     2    26    27   ar
     3    27    28   ar
     4    28    29   ar
     5    29    30   ar
     6    30    24    1
     7    24    23    1
     8    23    19    1
     9    19    20    2
    10    19    21   am
    11    21    14    1
    12    14    15    1
    13    15    16    1
    14    16    17    1
    15    17     1    1
    16     1     2   ar
    17     2     3    1
    18     2     4   ar
    19     4     5   ar
    20     5     6   ar
    21     6     7    2
    22     6     8   ar
    23     8    31    1
    24    31    32   ar
    25    31    33   ar
    26     8     9   ar
    27     9    10   ar
    28    10    34    1
    29    34    35    1
    30    35    36    1
    31    10    11   ar
    32    11    12   ar
    33    12    13    1
    34    17    18    1
    35    30    26   ar
    36    18    14    1
    37    12     1   ar
    38    11     5   ar
    39    36    34    1
    40    21    22    1
