@<TRIPOS>MOLECULE
*****
 38 43 0 0 0
SMALL
GASTEIGER

@<TRIPOS>ATOM
      1 C         141.1399  139.8562  158.0736 C.3     1  UNL1        0.0652
      2 S         142.5630  140.2959  158.2513 S.3     1  UNL1       -0.0757
      3 C         143.7624  140.9702  161.8808 C.ar    1  UNL1        0.1669
      4 N         144.4874  139.6948  161.5681 N.ar    1  UNL1       -0.1282
      5 N         144.1265  139.2870  160.1705 N.ar    1  UNL1       -0.1221
      6 C         143.1782  140.3103  159.6193 C.ar    1  UNL1        0.1932
      7 N         142.9532  141.3506  160.6763 N.ar    1  UNL1       -0.2884
      8 C         142.0735  142.5590  160.5510 C.3     1  UNL1        0.1340
      9 C         142.6748  138.9533  168.3614 C.3     1  UNL1        0.0521
     10 C         142.9645  139.6478  167.0639 C.ar    1  UNL1        0.0593
     11 C         142.8931  138.8865  165.7734 C.ar    1  UNL1        0.0147
     12 C         143.1828  139.5810  164.4758 C.ar    1  UNL1        0.0028
     13 C         143.5440  141.0368  164.4687 C.ar    1  UNL1        0.0206
     14 C         143.8338  141.7315  163.1712 C.ar    1  UNL1        0.0374
     15 C         144.1950  143.1873  163.1641 C.ar    1  UNL1        0.0031
     16 C         144.2664  143.9486  164.4546 C.ar    1  UNL1        0.0016
     17 C         143.9767  143.2540  165.7522 C.ar    1  UNL1        0.0191
     18 C         143.6155  141.7982  165.7592 C.ar    1  UNL1        0.0810
     19 N         143.3257  141.1036  167.0568 N.ar    1  UNL1       -0.2497
     20 C         140.5620  138.8045  158.9736 C.3     1  UNL1        0.0135
     21 C         139.2549  139.0476  159.6683 C.3     1  UNL1        0.0182
     22 C         138.8993  138.2597  160.8942 C.3     1  UNL1        0.0721
     23 N         139.0860  138.8638  162.2544 N.3     1  UNL1       -0.2721
     24 C         139.6213  140.2650  162.2762 C.3     1  UNL1        0.0768
     25 C         139.9156  141.1353  163.4621 C.3     1  UNL1        0.0433
     26 C         139.7472  140.8194  164.9186 C.ar    1  UNL1       -0.0250
     27 C         140.1611  141.9747  165.7813 C.ar    1  UNL1       -0.0070
     28 C         140.0707  141.8659  167.2746 C.ar    1  UNL1        0.0017
     29 C         139.5665  140.6018  167.9054 C.ar    1  UNL1        0.0509
     30 C         139.1527  139.4465  167.0427 C.ar    1  UNL1       -0.0003
     31 C         139.2430  139.5553  165.5494 C.ar    1  UNL1       -0.0246
     32 C         138.7827  138.2948  164.8792 C.3     1  UNL1        0.0433
     33 C         138.7128  137.9871  163.4128 C.3     1  UNL1        0.0768
     34 C         139.5883  140.7857  169.3938 C.2     1  UNL1        0.2490
     35 O         139.1665  139.7702  170.4140 O.2     1  UNL1       -0.2699
     36 N         140.1060  142.1635  169.6831 N.am    1  UNL1       -0.2702
     37 C         140.2928  142.7677  171.0433 C.3     1  UNL1        0.1155
     38 C         140.4041  142.8311  168.3733 C.3     1  UNL1        0.1206
@<TRIPOS>BOND
     1     9    10    1
     2    10    11   ar
     3    11    12   ar
     4    12    13   ar
     5    13    14   ar
     6    14     3    1
     7     3     4   ar
     8     4     5   ar
     9     5     6   ar
    10     6     2    1
    11     2     1    1
    12     1    20    1
    13    20    21    1
    14    21    22    1
    15    22    23    1
    16    23    24    1
    17    24    25    1
    18    25    26    1
    19    26    27   ar
    20    27    28   ar
    21    28    29   ar
    22    29    30   ar
    23    30    31   ar
    24    31    32    1
    25    32    33    1
    26    29    34    1
    27    34    35    2
    28    34    36   am
    29    36    37    1
    30    36    38    1
    31     6     7   ar
    32     7     8    1
    33    14    15   ar
    34    15    16   ar
    35    16    17   ar
    36    17    18   ar
    37    18    19   ar
    38    19    10   ar
    39    18    13   ar
    40     7     3   ar
    41    33    23    1
    42    31    26   ar
    43    38    28    1
@<TRIPOS>MOLECULE
*****
 38 43 0 0 0
SMALL
GASTEIGER

@<TRIPOS>ATOM
      1 C         139.7180  143.9715  157.7102 C.3     1  UNL1        0.0652
      2 S         141.1102  144.5073  157.8673 S.3     1  UNL1       -0.0757
      3 C         143.0592  143.4066  161.0384 C.ar    1  UNL1        0.1669
      4 N         143.8023  142.6627  159.9687 N.ar    1  UNL1       -0.1282
      5 N         143.1627  142.9844  158.6506 N.ar    1  UNL1       -0.1221
      6 C         142.0242  143.9272  158.9057 C.ar    1  UNL1        0.1932
      7 N         141.9603  144.1882  160.3815 N.ar    1  UNL1       -0.2884
      8 C         140.9711  145.0749  161.0780 C.3     1  UNL1        0.1340
      9 C         142.6634  138.2831  165.6039 C.3     1  UNL1        0.0521
     10 C         142.8380  139.5560  164.8297 C.ar    1  UNL1        0.0593
     11 C         142.5354  139.5880  163.3608 C.ar    1  UNL1        0.0147
     12 C         142.7100  140.8608  162.5867 C.ar    1  UNL1        0.0028
     13 C         143.1872  142.1017  163.2813 C.ar    1  UNL1        0.0206
     14 C         143.3618  143.3747  162.5072 C.ar    1  UNL1        0.0374
     15 C         143.8390  144.6155  163.2019 C.ar    1  UNL1        0.0031
     16 C         144.1416  144.5835  164.6707 C.ar    1  UNL1        0.0016
     17 C         143.9670  143.3106  165.4448 C.ar    1  UNL1        0.0191
     18 C         143.4898  142.0697  164.7502 C.ar    1  UNL1        0.0810
     19 N         143.3152  140.7969  165.5244 N.ar    1  UNL1       -0.2497
     20 C         139.3551  142.6416  158.3014 C.3     1  UNL1        0.0135
     21 C         138.5906  142.5773  159.5904 C.3     1  UNL1        0.0182
     22 C         138.5005  141.2843  160.3453 C.3     1  UNL1        0.0721
     23 N         138.8170  141.2479  161.8111 N.3     1  UNL1       -0.2721
     24 C         138.6078  139.9264  162.4894 C.3     1  UNL1        0.0768
     25 C         138.8308  139.5684  163.9290 C.3     1  UNL1        0.0433
     26 C         139.3179  140.4434  165.0456 C.ar    1  UNL1       -0.0250
     27 C         139.3997  139.6873  166.3385 C.ar    1  UNL1       -0.0070
     28 C         139.8660  140.3803  167.5844 C.ar    1  UNL1        0.0017
     29 C         140.2506  141.8294  167.5375 C.ar    1  UNL1        0.0509
     30 C         140.1688  142.5855  166.2445 C.ar    1  UNL1       -0.0003
     31 C         139.7025  141.8926  164.9986 C.ar    1  UNL1       -0.0246
     32 C         139.6948  142.8246  163.8233 C.3     1  UNL1        0.0433
     33 C         139.3007  142.5376  162.4047 C.3     1  UNL1        0.0768
     34 C         140.6703  142.2425  168.9170 C.2     1  UNL1        0.2490
     35 O         141.1339  143.6095  169.3252 O.2     1  UNL1       -0.2699
     36 N         140.5452  141.0488  169.8165 N.am    1  UNL1       -0.2702
     37 C         140.8617  141.0123  171.2823 C.3     1  UNL1        0.1155
     38 C         140.0481  139.8979  168.9930 C.3     1  UNL1        0.1206
@<TRIPOS>BOND
     1     9    10    1
     2    10    11   ar
     3    11    12   ar
     4    12    13   ar
     5    13    14   ar
     6    14     3    1
     7     3     4   ar
     8     4     5   ar
     9     5     6   ar
    10     6     2    1
    11     2     1    1
    12     1    20    1
    13    20    21    1
    14    21    22    1
    15    22    23    1
    16    23    24    1
    17    24    25    1
    18    25    26    1
    19    26    27   ar
    20    27    28   ar
    21    28    29   ar
    22    29    30   ar
    23    30    31   ar
    24    31    32    1
    25    32    33    1
    26    29    34    1
    27    34    35    2
    28    34    36   am
    29    36    37    1
    30    36    38    1
    31     6     7   ar
    32     7     8    1
    33    14    15   ar
    34    15    16   ar
    35    16    17   ar
    36    17    18   ar
    37    18    19   ar
    38    19    10   ar
    39    18    13   ar
    40     7     3   ar
    41    33    23    1
    42    31    26   ar
    43    38    28    1
@<TRIPOS>MOLECULE
*****
 38 43 0 0 0
SMALL
GASTEIGER

@<TRIPOS>ATOM
      1 C         142.0523  138.1800  158.2437 C.3     1  UNL1        0.0652
      2 S         142.8673  139.4392  158.2620 S.3     1  UNL1       -0.0757
      3 C         143.3144  141.6952  161.3887 C.ar    1  UNL1        0.1669
      4 N         144.1463  140.5061  161.7679 N.ar    1  UNL1       -0.1282
      5 N         144.0801  139.5162  160.6429 N.ar    1  UNL1       -0.1221
      6 C         143.2073  140.0936  159.5683 C.ar    1  UNL1        0.1932
      7 N         142.7341  141.4403  160.0292 N.ar    1  UNL1       -0.2884
      8 C         141.8379  142.3691  159.2648 C.3     1  UNL1        0.1340
      9 C         137.7547  143.9394  164.7507 C.3     1  UNL1        0.0521
     10 C         139.0911  143.6855  164.1186 C.ar    1  UNL1        0.0593
     11 C         139.3052  142.4570  163.2848 C.ar    1  UNL1        0.0147
     12 C         140.6416  142.2030  162.6527 C.ar    1  UNL1        0.0028
     13 C         141.7640  143.1775  162.8545 C.ar    1  UNL1        0.0206
     14 C         143.1005  142.9236  162.2224 C.ar    1  UNL1        0.0374
     15 C         144.2228  143.8981  162.4242 C.ar    1  UNL1        0.0031
     16 C         144.0087  145.1265  163.2580 C.ar    1  UNL1        0.0016
     17 C         142.6723  145.3804  163.8900 C.ar    1  UNL1        0.0191
     18 C         141.5499  144.4060  163.6883 C.ar    1  UNL1        0.0810
     19 N         140.2135  144.6599  164.3203 N.ar    1  UNL1       -0.2497
     20 C         140.5718  138.2415  158.4762 C.3     1  UNL1        0.0135
     21 C         140.0300  138.9658  159.6729 C.3     1  UNL1        0.0182
     22 C         139.3953  138.1948  160.7922 C.3     1  UNL1        0.0721
     23 N         139.6950  138.5569  162.2166 N.3     1  UNL1       -0.2721
     24 C         141.1490  138.6143  162.5814 C.3     1  UNL1        0.0768
     25 C         141.7682  138.9427  163.9076 C.3     1  UNL1        0.0433
     26 C         141.0865  139.2947  165.1965 C.ar    1  UNL1       -0.0250
     27 C         142.0808  139.5529  166.2896 C.ar    1  UNL1       -0.0070
     28 C         141.6058  139.9217  167.6637 C.ar    1  UNL1        0.0017
     29 C         140.1365  140.0323  167.9449 C.ar    1  UNL1        0.0509
     30 C         139.1423  139.7740  166.8518 C.ar    1  UNL1       -0.0003
     31 C         139.6172  139.4052  165.4777 C.ar    1  UNL1       -0.0246
     32 C         138.4668  139.1911  164.5393 C.3     1  UNL1        0.0433
     33 C         138.5015  138.8136  163.0880 C.3     1  UNL1        0.0768
     34 C         139.9677  140.4108  169.3865 C.2     1  UNL1        0.2490
     35 O         138.6629  140.6278  170.0940 O.2     1  UNL1       -0.2699
     36 N         141.3325  140.5341  169.9963 N.am    1  UNL1       -0.2702
     37 C         141.6323  140.8962  171.4207 C.3     1  UNL1        0.1155
     38 C         142.3449  140.2319  168.9316 C.3     1  UNL1        0.1206
@<TRIPOS>BOND
     1     9    10    1
     2    10    11   ar
     3    11    12   ar
     4    12    13   ar
     5    13    14   ar
     6    14     3    1
     7     3     4   ar
     8     4     5   ar
     9     5     6   ar
    10     6     2    1
    11     2     1    1
    12     1    20    1
    13    20    21    1
    14    21    22    1
    15    22    23    1
    16    23    24    1
    17    24    25    1
    18    25    26    1
    19    26    27   ar
    20    27    28   ar
    21    28    29   ar
    22    29    30   ar
    23    30    31   ar
    24    31    32    1
    25    32    33    1
    26    29    34    1
    27    34    35    2
    28    34    36   am
    29    36    37    1
    30    36    38    1
    31     6     7   ar
    32     7     8    1
    33    14    15   ar
    34    15    16   ar
    35    16    17   ar
    36    17    18   ar
    37    18    19   ar
    38    19    10   ar
    39    18    13   ar
    40     7     3   ar
    41    33    23    1
    42    31    26   ar
    43    38    28    1
@<TRIPOS>MOLECULE
*****
 38 43 0 0 0
SMALL
GASTEIGER

@<TRIPOS>ATOM
      1 C         142.6022  144.1139  158.0169 C.3     1  UNL1        0.0652
      2 S         143.2832  142.7782  158.0636 S.3     1  UNL1       -0.0757
      3 C         142.8440  140.5204  161.1903 C.ar    1  UNL1        0.1669
      4 N         141.7914  139.9620  160.2793 N.ar    1  UNL1       -0.1282
      5 N         141.8277  140.7397  158.9972 N.ar    1  UNL1       -0.1221
      6 C         142.9029  141.7789  159.1157 C.ar    1  UNL1        0.1932
      7 N         143.5310  141.6434  160.4712 N.ar    1  UNL1       -0.2884
      8 C         144.6497  142.4833  161.0124 C.3     1  UNL1        0.1340
      9 C         138.7194  139.2181  166.5326 C.3     1  UNL1        0.0521
     10 C         139.8283  139.4237  165.5437 C.ar    1  UNL1        0.0593
     11 C         139.5172  139.9038  164.1570 C.ar    1  UNL1        0.0147
     12 C         140.6261  140.1093  163.1680 C.ar    1  UNL1        0.0028
     13 C         142.0461  139.8348  163.5658 C.ar    1  UNL1        0.0206
     14 C         143.1552  140.0404  162.5768 C.ar    1  UNL1        0.0374
     15 C         144.5752  139.7659  162.9745 C.ar    1  UNL1        0.0031
     16 C         144.8862  139.2858  164.3612 C.ar    1  UNL1        0.0016
     17 C         143.7773  139.0802  165.3501 C.ar    1  UNL1        0.0191
     18 C         142.3573  139.3547  164.9524 C.ar    1  UNL1        0.0810
     19 N         141.2483  139.1492  165.9414 N.ar    1  UNL1       -0.2497
     20 C         141.3109  144.3234  158.7508 C.3     1  UNL1        0.0135
     21 C         141.2763  145.1881  159.9760 C.3     1  UNL1        0.0182
     22 C         140.1654  145.0336  160.9719 C.3     1  UNL1        0.0721
     23 N         140.4487  144.4601  162.3287 N.3     1  UNL1       -0.2721
     24 C         141.8796  144.0976  162.5961 C.3     1  UNL1        0.0768
     25 C         142.4789  143.5104  163.8396 C.3     1  UNL1        0.0433
     26 C         141.7955  143.1408  165.1225 C.ar    1  UNL1       -0.0250
     27 C         142.7667  142.5811  166.1193 C.ar    1  UNL1       -0.0070
     28 C         142.2864  142.1476  167.4726 C.ar    1  UNL1        0.0017
     29 C         140.8349  142.2737  167.8292 C.ar    1  UNL1        0.0509
     30 C         139.8636  142.8335  166.8324 C.ar    1  UNL1       -0.0003
     31 C         140.3439  143.2670  165.4791 C.ar    1  UNL1       -0.0246
     32 C         139.2173  143.7940  164.6407 C.3     1  UNL1        0.0433
     33 C         139.2640  144.3250  163.2386 C.3     1  UNL1        0.0768
     34 C         140.6559  141.7674  169.2297 C.2     1  UNL1        0.2490
     35 O         139.3629  141.7102  169.9880 O.2     1  UNL1       -0.2699
     36 N         141.9967  141.3282  169.7387 N.am    1  UNL1       -0.2702
     37 C         142.2802  140.7547  171.0955 C.3     1  UNL1        0.1155
     38 C         143.0044  141.5632  168.6527 C.3     1  UNL1        0.1206
@<TRIPOS>BOND
     1     9    10    1
     2    10    11   ar
     3    11    12   ar
     4    12    13   ar
     5    13    14   ar
     6    14     3    1
     7     3     4   ar
     8     4     5   ar
     9     5     6   ar
    10     6     2    1
    11     2     1    1
    12     1    20    1
    13    20    21    1
    14    21    22    1
    15    22    23    1
    16    23    24    1
    17    24    25    1
    18    25    26    1
    19    26    27   ar
    20    27    28   ar
    21    28    29   ar
    22    29    30   ar
    23    30    31   ar
    24    31    32    1
    25    32    33    1
    26    29    34    1
    27    34    35    2
    28    34    36   am
    29    36    37    1
    30    36    38    1
    31     6     7   ar
    32     7     8    1
    33    14    15   ar
    34    15    16   ar
    35    16    17   ar
    36    17    18   ar
    37    18    19   ar
    38    19    10   ar
    39    18    13   ar
    40     7     3   ar
    41    33    23    1
    42    31    26   ar
    43    38    28    1
@<TRIPOS>MOLECULE
*****
 38 43 0 0 0
SMALL
GASTEIGER

@<TRIPOS>ATOM
      1 C         138.8471  139.9326  158.1315 C.3     1  UNL1        0.0652
      2 S         138.3756  141.3531  158.0317 S.3     1  UNL1       -0.0757
      3 C         138.9919  143.3972  161.2733 C.ar    1  UNL1        0.1669
      4 N         139.5719  144.3142  160.2377 N.ar    1  UNL1       -0.1282
      5 N         139.4117  143.6602  158.8973 N.ar    1  UNL1       -0.1221
      6 C         138.7326  142.3388  159.1046 C.ar    1  UNL1        0.1932
      7 N         138.4732  142.1763  160.5730 N.ar    1  UNL1       -0.2884
      8 C         137.8113  140.9995  161.2264 C.3     1  UNL1        0.1340
      9 C         143.7225  142.4701  166.1735 C.3     1  UNL1        0.0521
     10 C         142.5268  142.7664  165.3176 C.ar    1  UNL1        0.0593
     11 C         142.5789  142.5081  163.8409 C.ar    1  UNL1        0.0147
     12 C         141.3833  142.8044  162.9850 C.ar    1  UNL1        0.0028
     13 C         140.1355  143.3591  163.6058 C.ar    1  UNL1        0.0206
     14 C         138.9398  143.6555  162.7499 C.ar    1  UNL1        0.0374
     15 C         137.6920  144.2102  163.3707 C.ar    1  UNL1        0.0031
     16 C         137.6399  144.4685  164.8474 C.ar    1  UNL1        0.0016
     17 C         138.8356  144.1721  165.7033 C.ar    1  UNL1        0.0191
     18 C         140.0834  143.6174  165.0825 C.ar    1  UNL1        0.0810
     19 N         141.2790  143.3211  165.9384 N.ar    1  UNL1       -0.2497
     20 C         140.2155  139.6325  158.6676 C.3     1  UNL1        0.0135
     21 C         140.4452  138.3985  159.4890 C.3     1  UNL1        0.0182
     22 C         141.6426  138.3081  160.3878 C.3     1  UNL1        0.0721
     23 N         141.5103  138.6260  161.8478 N.3     1  UNL1       -0.2721
     24 C         140.1734  139.1507  162.2810 C.3     1  UNL1        0.0768
     25 C         139.7283  139.5561  163.6549 C.3     1  UNL1        0.0433
     26 C         140.5101  139.5370  164.9348 C.ar    1  UNL1       -0.0250
     27 C         139.6854  140.0270  166.0881 C.ar    1  UNL1       -0.0070
     28 C         140.2807  140.0877  167.4635 C.ar    1  UNL1        0.0017
     29 C         141.7007  139.6585  167.6858 C.ar    1  UNL1        0.0509
     30 C         142.5254  139.1686  166.5326 C.ar    1  UNL1       -0.0003
     31 C         141.9301  139.1078  165.1571 C.ar    1  UNL1       -0.0246
     32 C         142.9190  138.5917  164.1543 C.3     1  UNL1        0.0433
     33 C         142.7321  138.3773  162.6815 C.3     1  UNL1        0.0768
     34 C         142.0136  139.8282  169.1429 C.2     1  UNL1        0.2490
     35 O         143.3232  139.5182  169.8055 O.2     1  UNL1       -0.2699
     36 N         140.7870  140.3623  169.8212 N.am    1  UNL1       -0.2702
     37 C         140.6546  140.6802  171.2812 C.3     1  UNL1        0.1155
     38 C         139.7161  140.5227  168.7833 C.3     1  UNL1        0.1206
@<TRIPOS>BOND
     1     9    10    1
     2    10    11   ar
     3    11    12   ar
     4    12    13   ar
     5    13    14   ar
     6    14     3    1
     7     3     4   ar
     8     4     5   ar
     9     5     6   ar
    10     6     2    1
    11     2     1    1
    12     1    20    1
    13    20    21    1
    14    21    22    1
    15    22    23    1
    16    23    24    1
    17    24    25    1
    18    25    26    1
    19    26    27   ar
    20    27    28   ar
    21    28    29   ar
    22    29    30   ar
    23    30    31   ar
    24    31    32    1
    25    32    33    1
    26    29    34    1
    27    34    35    2
    28    34    36   am
    29    36    37    1
    30    36    38    1
    31     6     7   ar
    32     7     8    1
    33    14    15   ar
    34    15    16   ar
    35    16    17   ar
    36    17    18   ar
    37    18    19   ar
    38    19    10   ar
    39    18    13   ar
    40     7     3   ar
    41    33    23    1
    42    31    26   ar
    43    38    28    1
@<TRIPOS>MOLECULE
*****
 38 43 0 0 0
SMALL
GASTEIGER

@<TRIPOS>ATOM
      1 C         141.5269  138.5431  158.1359 C.3     1  UNL1        0.0652
      2 S         140.0680  138.6132  158.4777 S.3     1  UNL1       -0.0757
      3 C         139.1549  140.8251  161.5338 C.ar    1  UNL1        0.1669
      4 N         138.7621  139.4659  162.0320 N.ar    1  UNL1       -0.1282
      5 N         139.0563  138.4718  160.9479 N.ar    1  UNL1       -0.1221
      6 C         139.6310  139.2167  159.7796 C.ar    1  UNL1        0.1932
      7 N         139.6919  140.6711  160.1417 N.ar    1  UNL1       -0.2884
      8 C         140.2005  141.7773  159.2656 C.3     1  UNL1        0.1340
      9 C         143.9532  144.8661  164.3438 C.3     1  UNL1        0.0521
     10 C         142.7230  144.1776  163.8314 C.ar    1  UNL1        0.0593
     11 C         142.8456  142.8904  163.0710 C.ar    1  UNL1        0.0147
     12 C         141.6154  142.2019  162.5586 C.ar    1  UNL1        0.0028
     13 C         140.2626  142.8007  162.8065 C.ar    1  UNL1        0.0206
     14 C         139.0323  142.1122  162.2941 C.ar    1  UNL1        0.0374
     15 C         137.6795  142.7110  162.5420 C.ar    1  UNL1        0.0031
     16 C         137.5570  143.9982  163.3024 C.ar    1  UNL1        0.0016
     17 C         138.7872  144.6866  163.8148 C.ar    1  UNL1        0.0191
     18 C         140.1400  144.0879  163.5669 C.ar    1  UNL1        0.0810
     19 N         141.3702  144.7764  164.0793 N.ar    1  UNL1       -0.2497
     20 C         142.5582  138.7169  159.2110 C.3     1  UNL1        0.0135
     21 C         142.9297  137.5582  160.0884 C.3     1  UNL1        0.0182
     22 C         143.8749  137.7590  161.2356 C.3     1  UNL1        0.0721
     23 N         143.3856  138.3788  162.5109 N.3     1  UNL1       -0.2721
     24 C         142.0040  137.9816  162.9393 C.3     1  UNL1        0.0768
     25 C         141.2381  138.4214  164.1518 C.3     1  UNL1        0.0433
     26 C         141.6647  139.3668  165.2353 C.ar    1  UNL1       -0.0250
     27 C         140.5920  139.5339  166.2704 C.ar    1  UNL1       -0.0070
     28 C         140.8171  140.4403  167.4442 C.ar    1  UNL1        0.0017
     29 C         142.1148  141.1796  167.5830 C.ar    1  UNL1        0.0509
     30 C         143.1876  141.0124  166.5479 C.ar    1  UNL1       -0.0003
     31 C         142.9625  140.1061  165.3741 C.ar    1  UNL1       -0.0246
     32 C         144.1542  140.0825  164.4635 C.3     1  UNL1        0.0433
     33 C         144.3425  139.3137  163.1893 C.3     1  UNL1        0.0768
     34 C         142.0505  141.9974  168.8387 C.2     1  UNL1        0.2490
     35 O         143.1336  142.8920  169.3648 O.2     1  UNL1       -0.2699
     36 N         140.7130  141.7636  169.4761 N.am    1  UNL1       -0.2702
     37 C         140.2236  142.3834  170.7514 C.3     1  UNL1        0.1155
     38 C         139.9507  140.8013  168.6143 C.3     1  UNL1        0.1206
@<TRIPOS>BOND
     1     9    10    1
     2    10    11   ar
     3    11    12   ar
     4    12    13   ar
     5    13    14   ar
     6    14     3    1
     7     3     4   ar
     8     4     5   ar
     9     5     6   ar
    10     6     2    1
    11     2     1    1
    12     1    20    1
    13    20    21    1
    14    21    22    1
    15    22    23    1
    16    23    24    1
    17    24    25    1
    18    25    26    1
    19    26    27   ar
    20    27    28   ar
    21    28    29   ar
    22    29    30   ar
    23    30    31   ar
    24    31    32    1
    25    32    33    1
    26    29    34    1
    27    34    35    2
    28    34    36   am
    29    36    37    1
    30    36    38    1
    31     6     7   ar
    32     7     8    1
    33    14    15   ar
    34    15    16   ar
    35    16    17   ar
    36    17    18   ar
    37    18    19   ar
    38    19    10   ar
    39    18    13   ar
    40     7     3   ar
    41    33    23    1
    42    31    26   ar
    43    38    28    1
@<TRIPOS>MOLECULE
*****
 38 43 0 0 0
SMALL
GASTEIGER

@<TRIPOS>ATOM
      1 C         143.5437  141.4389  156.5597 C.3     1  UNL1        0.0652
      2 S         142.6582  140.2297  156.4997 S.3     1  UNL1       -0.0757
      3 C         141.5768  138.5138  159.8091 C.ar    1  UNL1        0.1669
      4 N         142.7331  137.6506  159.3994 N.ar    1  UNL1       -0.1282
      5 N         143.2789  138.1883  158.1098 N.ar    1  UNL1       -0.1221
      6 C         142.4600  139.3838  157.7225 C.ar    1  UNL1        0.1932
      7 N         141.4080  139.5850  158.7727 N.ar    1  UNL1       -0.2884
      8 C         140.3695  140.6673  158.7845 C.3     1  UNL1        0.1340
      9 C         143.2607  138.6871  166.4712 C.3     1  UNL1        0.0521
     10 C         142.6297  138.5995  165.1132 C.ar    1  UNL1        0.0593
     11 C         143.4698  138.7764  163.8831 C.ar    1  UNL1        0.0147
     12 C         142.8388  138.6889  162.5251 C.ar    1  UNL1        0.0028
     13 C         141.3678  138.4245  162.3971 C.ar    1  UNL1        0.0206
     14 C         140.7368  138.3369  161.0391 C.ar    1  UNL1        0.0374
     15 C         139.2658  138.0725  160.9112 C.ar    1  UNL1        0.0031
     16 C         138.4259  137.8957  162.1413 C.ar    1  UNL1        0.0016
     17 C         139.0568  137.9832  163.4993 C.ar    1  UNL1        0.0191
     18 C         140.5278  138.2476  163.6273 C.ar    1  UNL1        0.0810
     19 N         141.1588  138.3351  164.9853 N.ar    1  UNL1       -0.2497
     20 C         143.0492  142.6993  157.2054 C.3     1  UNL1        0.0135
     21 C         143.6439  143.1604  158.5031 C.3     1  UNL1        0.0182
     22 C         144.1887  142.1578  159.4767 C.3     1  UNL1        0.0721
     23 N         143.7558  142.1947  160.9124 N.3     1  UNL1       -0.2721
     24 C         142.2809  142.0605  161.1510 C.3     1  UNL1        0.0768
     25 C         141.5409  142.0593  162.4558 C.3     1  UNL1        0.0433
     26 C         142.0930  142.1920  163.8441 C.ar    1  UNL1       -0.0250
     27 C         141.0038  142.1406  164.8742 C.ar    1  UNL1       -0.0070
     28 C         141.3430  142.2558  166.3308 C.ar    1  UNL1        0.0017
     29 C         142.7714  142.4224  166.7574 C.ar    1  UNL1        0.0509
     30 C         143.8606  142.4739  165.7273 C.ar    1  UNL1       -0.0003
     31 C         143.5214  142.3586  164.2707 C.ar    1  UNL1       -0.0246
     32 C         144.7505  142.4337  163.4141 C.3     1  UNL1        0.0433
     33 C         144.8547  142.3608  161.9195 C.3     1  UNL1        0.0768
     34 C         142.8010  142.5089  168.2545 C.2     1  UNL1        0.2490
     35 O         144.0257  142.6788  169.1038 O.2     1  UNL1       -0.2699
     36 N         141.3910  142.3958  168.7533 N.am    1  UNL1       -0.2702
     37 C         140.9579  142.4326  170.1890 C.3     1  UNL1        0.1155
     38 C         140.4899  142.2393  167.5644 C.3     1  UNL1        0.1206
@<TRIPOS>BOND
     1     9    10    1
     2    10    11   ar
     3    11    12   ar
     4    12    13   ar
     5    13    14   ar
     6    14     3    1
     7     3     4   ar
     8     4     5   ar
     9     5     6   ar
    10     6     2    1
    11     2     1    1
    12     1    20    1
    13    20    21    1
    14    21    22    1
    15    22    23    1
    16    23    24    1
    17    24    25    1
    18    25    26    1
    19    26    27   ar
    20    27    28   ar
    21    28    29   ar
    22    29    30   ar
    23    30    31   ar
    24    31    32    1
    25    32    33    1
    26    29    34    1
    27    34    35    2
    28    34    36   am
    29    36    37    1
    30    36    38    1
    31     6     7   ar
    32     7     8    1
    33    14    15   ar
    34    15    16   ar
    35    16    17   ar
    36    17    18   ar
    37    18    19   ar
    38    19    10   ar
    39    18    13   ar
    40     7     3   ar
    41    33    23    1
    42    31    26   ar
    43    38    28    1
@<TRIPOS>MOLECULE
*****
 38 43 0 0 0
SMALL
GASTEIGER

@<TRIPOS>ATOM
      1 C         141.8747  142.9735  157.1510 C.3     1  UNL1        0.0652
      2 S         140.6180  143.7409  157.4369 S.3     1  UNL1       -0.0757
      3 C         139.2401  143.3514  161.0446 C.ar    1  UNL1        0.1669
      4 N         138.0994  142.8052  160.2381 N.ar    1  UNL1       -0.1282
      5 N         138.4767  142.8846  158.7885 N.ar    1  UNL1       -0.1221
      6 C         139.8506  143.4799  158.6990 C.ar    1  UNL1        0.1932
      7 N         140.3224  143.7684  160.0934 N.ar    1  UNL1       -0.2884
      8 C         141.6444  144.3685  160.4704 C.3     1  UNL1        0.1340
      9 C         138.9471  138.5188  165.9241 C.3     1  UNL1        0.0521
     10 C         139.0327  139.7544  165.0780 C.ar    1  UNL1        0.0593
     11 C         138.9830  139.6445  163.5828 C.ar    1  UNL1        0.0147
     12 C         139.0687  140.8801  162.7367 C.ar    1  UNL1        0.0028
     13 C         139.2041  142.2256  163.3857 C.ar    1  UNL1        0.0206
     14 C         139.2898  143.4613  162.5397 C.ar    1  UNL1        0.0374
     15 C         139.4253  144.8068  163.1887 C.ar    1  UNL1        0.0031
     16 C         139.4750  144.9166  164.6839 C.ar    1  UNL1        0.0016
     17 C         139.3893  143.6810  165.5300 C.ar    1  UNL1        0.0191
     18 C         139.2539  142.3355  164.8809 C.ar    1  UNL1        0.0810
     19 N         139.1682  141.0999  165.7270 N.ar    1  UNL1       -0.2497
     20 C         141.9933  141.5416  157.5816 C.3     1  UNL1        0.0135
     21 C         142.8869  141.1751  158.7295 C.3     1  UNL1        0.0182
     22 C         142.6164  139.9314  159.5231 C.3     1  UNL1        0.0721
     23 N         142.6343  139.9795  161.0222 N.3     1  UNL1       -0.2721
     24 C         142.5575  138.6522  161.7169 C.3     1  UNL1        0.0768
     25 C         142.5541  138.3661  163.1894 C.3     1  UNL1        0.0433
     26 C         142.6266  139.3366  164.3307 C.ar    1  UNL1       -0.0250
     27 C         142.5952  138.6300  165.6536 C.ar    1  UNL1       -0.0070
     28 C         142.6576  139.4198  166.9274 C.ar    1  UNL1        0.0017
     29 C         142.7514  140.9161  166.8783 C.ar    1  UNL1        0.0509
     30 C         142.7828  141.6226  165.5555 C.ar    1  UNL1       -0.0003
     31 C         142.7204  140.8328  164.2817 C.ar    1  UNL1       -0.0246
     32 C         142.7649  141.7282  163.0791 C.3     1  UNL1        0.0433
     33 C         142.7266  141.3483  161.6284 C.3     1  UNL1        0.0768
     34 C         142.7974  141.4241  168.2888 C.2     1  UNL1        0.2490
     35 O         142.8922  142.8620  168.7054 O.2     1  UNL1       -0.2699
     36 N         142.7320  140.2419  169.2097 N.am    1  UNL1       -0.2702
     37 C         142.7499  140.2899  170.7089 C.3     1  UNL1        0.1155
     38 C         142.6456  139.0032  168.3683 C.3     1  UNL1        0.1206
@<TRIPOS>BOND
     1     9    10    1
     2    10    11   ar
     3    11    12   ar
     4    12    13   ar
     5    13    14   ar
     6    14     3    1
     7     3     4   ar
     8     4     5   ar
     9     5     6   ar
    10     6     2    1
    11     2     1    1
    12     1    20    1
    13    20    21    1
    14    21    22    1
    15    22    23    1
    16    23    24    1
    17    24    25    1
    18    25    26    1
    19    26    27   ar
    20    27    28   ar
    21    28    29   ar
    22    29    30   ar
    23    30    31   ar
    24    31    32    1
    25    32    33    1
    26    29    34    1
    27    34    35    2
    28    34    36   am
    29    36    37    1
    30    36    38    1
    31     6     7   ar
    32     7     8    1
    33    14    15   ar
    34    15    16   ar
    35    16    17   ar
    36    17    18   ar
    37    18    19   ar
    38    19    10   ar
    39    18    13   ar
    40     7     3   ar
    41    33    23    1
    42    31    26   ar
    43    38    28    1
@<TRIPOS>MOLECULE
*****
 38 43 0 0 0
SMALL
GASTEIGER

@<TRIPOS>ATOM
      1 C         140.1375  144.0402  157.5000 C.3     1  UNL1        0.0652
      2 S         139.0742  143.0181  157.7731 S.3     1  UNL1       -0.0757
      3 C         139.4272  140.8325  160.9613 C.ar    1  UNL1        0.1669
      4 N         138.3669  141.8026  161.3908 N.ar    1  UNL1       -0.1282
      5 N         138.1055  142.7394  160.2489 N.ar    1  UNL1       -0.1221
      6 C         139.0044  142.3483  159.1135 C.ar    1  UNL1        0.1932
      7 N         139.8213  141.1698  159.5538 N.ar    1  UNL1       -0.2884
      8 C         140.8513  140.4542  158.7311 C.3     1  UNL1        0.1340
      9 C         138.0107  138.8482  167.3882 C.3     1  UNL1        0.0521
     10 C         138.5065  139.0663  165.9894 C.ar    1  UNL1        0.0593
     11 C         137.9397  140.1784  165.1576 C.ar    1  UNL1        0.0147
     12 C         138.4355  140.3965  163.7588 C.ar    1  UNL1        0.0028
     13 C         139.4982  139.5024  163.1919 C.ar    1  UNL1        0.0206
     14 C         139.9941  139.7204  161.7930 C.ar    1  UNL1        0.0374
     15 C         141.0568  138.8264  161.2261 C.ar    1  UNL1        0.0031
     16 C         141.6236  137.7144  162.0580 C.ar    1  UNL1        0.0016
     17 C         141.1277  137.4963  163.4568 C.ar    1  UNL1        0.0191
     18 C         140.0650  138.3903  164.0237 C.ar    1  UNL1        0.0810
     19 N         139.5692  138.1722  165.4225 N.ar    1  UNL1       -0.2497
     20 C         140.2876  145.2266  158.4055 C.3     1  UNL1        0.0135
     21 C         141.4290  145.2889  159.3770 C.3     1  UNL1        0.0182
     22 C         142.1643  144.0363  159.7515 C.3     1  UNL1        0.0721
     23 N         142.0266  143.4706  161.1339 N.3     1  UNL1       -0.2721
     24 C         141.0088  144.1372  162.0114 C.3     1  UNL1        0.0768
     25 C         140.6380  143.8109  163.4278 C.3     1  UNL1        0.0433
     26 C         141.1932  142.7376  164.3163 C.ar    1  UNL1       -0.0250
     27 C         140.5423  142.7538  165.6677 C.ar    1  UNL1       -0.0070
     28 C         140.9546  141.7578  166.7108 C.ar    1  UNL1        0.0017
     29 C         142.0179  140.7456  166.4026 C.ar    1  UNL1        0.0509
     30 C         142.6688  140.7295  165.0512 C.ar    1  UNL1       -0.0003
     31 C         142.2565  141.7254  164.0081 C.ar    1  UNL1       -0.0246
     32 C         143.0271  141.5366  162.7352 C.3     1  UNL1        0.0433
     33 C         142.9247  142.3133  161.4560 C.3     1  UNL1        0.0768
     34 C         142.2154  139.8949  167.6220 C.2     1  UNL1        0.2490
     35 O         143.1841  138.7575  167.7561 O.2     1  UNL1       -0.2699
     36 N         141.2743  140.3812  168.6839 N.am    1  UNL1       -0.2702
     37 C         141.1365  139.8156  170.0664 C.3     1  UNL1        0.1155
     38 C         140.4951  141.5326  168.1207 C.3     1  UNL1        0.1206
@<TRIPOS>BOND
     1     9    10    1
     2    10    11   ar
     3    11    12   ar
     4    12    13   ar
     5    13    14   ar
     6    14     3    1
     7     3     4   ar
     8     4     5   ar
     9     5     6   ar
    10     6     2    1
    11     2     1    1
    12     1    20    1
    13    20    21    1
    14    21    22    1
    15    22    23    1
    16    23    24    1
    17    24    25    1
    18    25    26    1
    19    26    27   ar
    20    27    28   ar
    21    28    29   ar
    22    29    30   ar
    23    30    31   ar
    24    31    32    1
    25    32    33    1
    26    29    34    1
    27    34    35    2
    28    34    36   am
    29    36    37    1
    30    36    38    1
    31     6     7   ar
    32     7     8    1
    33    14    15   ar
    34    15    16   ar
    35    16    17   ar
    36    17    18   ar
    37    18    19   ar
    38    19    10   ar
    39    18    13   ar
    40     7     3   ar
    41    33    23    1
    42    31    26   ar
    43    38    28    1
