@<TRIPOS>MOLECULE
*****
 38 42 0 0 0
SMALL
GASTEIGER

@<TRIPOS>ATOM
      1 C         138.6905  139.5793  159.7561 C.ar    1  UNL1        0.1233
      2 C         139.7886  139.0644  158.8734 C.ar    1  UNL1        0.1181
      3 N         139.3850  139.2972  157.4477 N.ar    1  UNL1       -0.2208
      4 N         138.0373  139.9560  157.4491 N.ar    1  UNL1       -0.0633
      5 N         137.6081  140.1303  158.8758 N.ar    1  UNL1       -0.1287
      6 C         139.3870  138.4281  163.4897 C.ar    1  UNL1        0.1547
      7 C         139.4004  138.4588  161.9900 C.ar    1  UNL1        0.0400
      8 C         138.6771  139.5486  161.2557 C.ar    1  UNL1        0.0241
      9 C         137.9403  140.6076  162.0209 C.ar    1  UNL1        0.0033
     10 C         137.9268  140.5769  163.5206 C.ar    1  UNL1        0.0207
     11 C         138.6502  139.4871  164.2549 C.ar    1  UNL1        0.0994
     12 N         138.6368  139.4564  165.7545 N.ar    1  UNL1       -0.2839
     13 C         137.7331  138.6199  166.6112 C.ar    1  UNL1        0.1826
     14 N         138.0625  138.9032  168.0469 N.ar    1  UNL1       -0.2280
     15 C         139.1697  139.9148  168.0775 C.ar    1  UNL1        0.0786
     16 C         139.8096  140.4844  169.3088 C.3     1  UNL1        0.0538
     17 C         139.5246  140.2566  166.6608 C.ar    1  UNL1        0.0963
     18 C         141.5322  137.5414  164.6566 C.3     1  UNL1        0.2525
     19 O         140.1103  137.3384  164.2240 O.3     1  UNL1       -0.4700
     20 C         140.1879  138.9349  156.2336 C.3     1  UNL1        0.2141
     21 C         140.6583  137.5239  156.0391 C.2     1  UNL1        0.2545
     22 O         139.6609  136.4216  155.8390 O.2     1  UNL1       -0.2724
     23 N         142.1262  137.2153  156.0448 N.am    1  UNL1       -0.2488
     24 C         142.5967  135.8042  155.8504 C.ar    1  UNL1        0.0542
     25 C         142.3127  135.0898  154.5624 C.ar    1  UNL1        0.0149
     26 C         142.7832  133.6788  154.3679 C.ar    1  UNL1        0.0013
     27 C         143.5376  132.9823  155.4615 C.ar    1  UNL1        0.0001
     28 C         144.0080  131.5713  155.2670 C.ar    1  UNL1        0.0000
     29 C         144.7624  130.8748  156.3605 C.ar    1  UNL1        0.0000
     30 C         145.0463  131.5893  157.6485 C.ar    1  UNL1        0.0000
     31 C         144.5759  133.0003  157.8430 C.ar    1  UNL1        0.0000
     32 C         143.8215  133.6967  156.7495 C.ar    1  UNL1        0.0012
     33 C         143.3510  135.1078  156.9439 C.ar    1  UNL1        0.0149
     34 C         143.1236  138.3176  156.2450 C.3     1  UNL1        0.2016
     35 C         143.9737  138.7772  155.0978 C.3     1  UNL1        0.4160
     36 F         144.8238  139.2369  153.9507 F       1  UNL1       -0.1682
     37 F         143.0196  139.9062  154.8432 F       1  UNL1       -0.1682
     38 F         144.9279  137.6482  155.3525 F       1  UNL1       -0.1682
@<TRIPOS>BOND
     1    18    19    1
     2    19     6    1
     3     6     7   ar
     4     7     8   ar
     5     8     1    1
     6     1     2   ar
     7     2     3   ar
     8     3    20    1
     9    20    21    1
    10    21    22    2
    11    21    23   am
    12    23    34    1
    13    34    35    1
    14    35    36    1
    15    35    37    1
    16    35    38    1
    17    23    24    1
    18    24    25   ar
    19    25    26   ar
    20    26    27   ar
    21    27    28   ar
    22    28    29   ar
    23    29    30   ar
    24    30    31   ar
    25    31    32   ar
    26    32    33   ar
    27     3     4   ar
    28     4     5   ar
    29     8     9   ar
    30     9    10   ar
    31    10    11   ar
    32    11    12    1
    33    12    13   ar
    34    13    14   ar
    35    14    15   ar
    36    15    16    1
    37    15    17   ar
    38    11     6   ar
    39    17    12   ar
    40     5     1   ar
    41    33    24   ar
    42    32    27   ar
@<TRIPOS>MOLECULE
*****
 38 42 0 0 0
SMALL
GASTEIGER

@<TRIPOS>ATOM
      1 C         142.1006  142.5783  159.0634 C.ar    1  UNL1        0.1233
      2 C         141.6495  142.7884  160.4785 C.ar    1  UNL1        0.1181
      3 N         141.6619  144.2627  160.7548 N.ar    1  UNL1       -0.2208
      4 N         142.1206  144.9637  159.5106 N.ar    1  UNL1       -0.0633
      5 N         142.3918  143.9227  158.4652 N.ar    1  UNL1       -0.1287
      6 C         142.7674  138.7140  158.4527 C.ar    1  UNL1        0.1547
      7 C         142.6314  140.0364  159.1476 C.ar    1  UNL1        0.0400
      8 C         142.2366  141.2559  158.3686 C.ar    1  UNL1        0.0241
      9 C         141.9779  141.1531  156.8947 C.ar    1  UNL1        0.0033
     10 C         142.1139  139.8308  156.1997 C.ar    1  UNL1        0.0207
     11 C         142.5087  138.6112  156.9788 C.ar    1  UNL1        0.0994
     12 N         142.6448  137.2889  156.2840 N.ar    1  UNL1       -0.2839
     13 C         143.8748  136.7778  155.5940 C.ar    1  UNL1        0.1826
     14 N         143.5649  135.4185  155.0407 N.ar    1  UNL1       -0.2280
     15 C         142.1434  135.0895  155.3886 C.ar    1  UNL1        0.0786
     16 C         141.4180  133.8261  155.0309 C.3     1  UNL1        0.0538
     17 C         141.5747  136.2454  156.1570 C.ar    1  UNL1        0.0963
     18 C         143.3034  137.5705  160.7232 C.3     1  UNL1        0.2525
     19 O         143.1622  137.4945  159.2318 O.3     1  UNL1       -0.4700
     20 C         141.2822  144.9205  162.0484 C.3     1  UNL1        0.2141
     21 C         140.7206  144.0992  163.1709 C.2     1  UNL1        0.2545
     22 O         139.2439  144.0988  163.4341 O.2     1  UNL1       -0.2724
     23 N         141.6358  143.2784  164.0303 N.am    1  UNL1       -0.2488
     24 C         141.0743  142.4570  165.1529 C.ar    1  UNL1        0.0542
     25 C         140.5879  141.0624  164.8914 C.ar    1  UNL1        0.0149
     26 C         140.0264  140.2411  166.0139 C.ar    1  UNL1        0.0013
     27 C         139.9513  140.8144  167.3980 C.ar    1  UNL1        0.0001
     28 C         139.3897  139.9931  168.5205 C.ar    1  UNL1        0.0000
     29 C         139.3146  140.5664  169.9046 C.ar    1  UNL1        0.0000
     30 C         139.8010  141.9610  170.1661 C.ar    1  UNL1        0.0000
     31 C         140.3625  142.7824  169.0436 C.ar    1  UNL1        0.0000
     32 C         140.4376  142.2090  167.6595 C.ar    1  UNL1        0.0012
     33 C         140.9992  143.0304  166.5369 C.ar    1  UNL1        0.0149
     34 C         143.1126  143.2788  163.7671 C.3     1  UNL1        0.2016
     35 C         144.0612  143.7776  164.8164 C.3     1  UNL1        0.4160
     36 F         145.0099  144.2764  165.8658 F       1  UNL1       -0.1682
     37 F         143.7384  145.1921  164.4359 F       1  UNL1       -0.1682
     38 F         144.3841  142.3631  165.1970 F       1  UNL1       -0.1682
@<TRIPOS>BOND
     1    18    19    1
     2    19     6    1
     3     6     7   ar
     4     7     8   ar
     5     8     1    1
     6     1     2   ar
     7     2     3   ar
     8     3    20    1
     9    20    21    1
    10    21    22    2
    11    21    23   am
    12    23    34    1
    13    34    35    1
    14    35    36    1
    15    35    37    1
    16    35    38    1
    17    23    24    1
    18    24    25   ar
    19    25    26   ar
    20    26    27   ar
    21    27    28   ar
    22    28    29   ar
    23    29    30   ar
    24    30    31   ar
    25    31    32   ar
    26    32    33   ar
    27     3     4   ar
    28     4     5   ar
    29     8     9   ar
    30     9    10   ar
    31    10    11   ar
    32    11    12    1
    33    12    13   ar
    34    13    14   ar
    35    14    15   ar
    36    15    16    1
    37    15    17   ar
    38    11     6   ar
    39    17    12   ar
    40     5     1   ar
    41    33    24   ar
    42    32    27   ar
@<TRIPOS>MOLECULE
*****
 38 42 0 0 0
SMALL
GASTEIGER

@<TRIPOS>ATOM
      1 C         142.7044  140.6413  159.6680 C.ar    1  UNL1        0.1233
      2 C         142.5581  140.4056  161.1421 C.ar    1  UNL1        0.1181
      3 N         143.4569  139.2660  161.5207 N.ar    1  UNL1       -0.2208
      4 N         144.1587  138.7974  160.2806 N.ar    1  UNL1       -0.0633
      5 N         143.6937  139.6474  159.1355 N.ar    1  UNL1       -0.1287
      6 C         140.4907  143.8085  158.7631 C.ar    1  UNL1        0.1547
      7 C         141.2078  142.7625  159.5642 C.ar    1  UNL1        0.0400
      8 C         141.9873  141.6873  158.8669 C.ar    1  UNL1        0.0241
      9 C         142.0499  141.6581  157.3685 C.ar    1  UNL1        0.0033
     10 C         141.3329  142.7041  156.5674 C.ar    1  UNL1        0.0207
     11 C         140.5533  143.7793  157.2648 C.ar    1  UNL1        0.0994
     12 N         139.8362  144.8253  156.4637 N.ar    1  UNL1       -0.2839
     13 C         138.5681  144.6260  155.6876 C.ar    1  UNL1        0.1826
     14 N         138.2095  145.9317  155.0423 N.ar    1  UNL1       -0.2280
     15 C         139.2560  146.9380  155.4195 C.ar    1  UNL1        0.0786
     16 C         139.2910  148.3757  154.9931 C.3     1  UNL1        0.0538
     17 C         140.2614  146.2542  156.2979 C.ar    1  UNL1        0.0963
     18 C         140.2787  145.5522  160.6774 C.3     1  UNL1        0.2525
     19 O         139.7112  144.8837  159.4604 O.3     1  UNL1       -0.4700
     20 C         143.6245  138.6952  162.8978 C.3     1  UNL1        0.2141
     21 C         143.2485  139.5113  164.0988 C.2     1  UNL1        0.2545
     22 O         144.2874  140.3340  164.8016 O.2     1  UNL1       -0.2724
     23 N         141.8338  139.5047  164.5971 N.am    1  UNL1       -0.2488
     24 C         141.4578  140.3209  165.7982 C.ar    1  UNL1        0.0542
     25 C         140.9824  141.7331  165.6264 C.ar    1  UNL1        0.0149
     26 C         140.6064  142.5493  166.8274 C.ar    1  UNL1        0.0013
     27 C         140.7058  141.9532  168.2003 C.ar    1  UNL1        0.0001
     28 C         140.3298  142.7693  169.4014 C.ar    1  UNL1        0.0000
     29 C         140.4292  142.1732  170.7742 C.ar    1  UNL1        0.0000
     30 C         140.9046  140.7609  170.9460 C.ar    1  UNL1        0.0000
     31 C         141.2806  139.9448  169.7450 C.ar    1  UNL1        0.0000
     32 C         141.1812  140.5409  168.3722 C.ar    1  UNL1        0.0012
     33 C         141.5572  139.7248  167.1710 C.ar    1  UNL1        0.0149
     34 C         140.7949  138.6820  163.8943 C.3     1  UNL1        0.2016
     35 C         139.8397  137.8418  164.6890 C.3     1  UNL1        0.4160
     36 F         138.8845  137.0017  165.4837 F       1  UNL1       -0.1682
     37 F         140.9077  136.8055  164.8770 F       1  UNL1       -0.1682
     38 F         138.7717  138.8782  164.5010 F       1  UNL1       -0.1682
@<TRIPOS>BOND
     1    18    19    1
     2    19     6    1
     3     6     7   ar
     4     7     8   ar
     5     8     1    1
     6     1     2   ar
     7     2     3   ar
     8     3    20    1
     9    20    21    1
    10    21    22    2
    11    21    23   am
    12    23    34    1
    13    34    35    1
    14    35    36    1
    15    35    37    1
    16    35    38    1
    17    23    24    1
    18    24    25   ar
    19    25    26   ar
    20    26    27   ar
    21    27    28   ar
    22    28    29   ar
    23    29    30   ar
    24    30    31   ar
    25    31    32   ar
    26    32    33   ar
    27     3     4   ar
    28     4     5   ar
    29     8     9   ar
    30     9    10   ar
    31    10    11   ar
    32    11    12    1
    33    12    13   ar
    34    13    14   ar
    35    14    15   ar
    36    15    16    1
    37    15    17   ar
    38    11     6   ar
    39    17    12   ar
    40     5     1   ar
    41    33    24   ar
    42    32    27   ar
@<TRIPOS>MOLECULE
*****
 38 42 0 0 0
SMALL
GASTEIGER

@<TRIPOS>ATOM
      1 C         142.9707  137.0477  157.1262 C.ar    1  UNL1        0.1233
      2 C         142.6358  137.5973  158.4811 C.ar    1  UNL1        0.1181
      3 N         143.1427  139.0074  158.5476 N.ar    1  UNL1       -0.2208
      4 N         143.7910  139.3294  157.2338 N.ar    1  UNL1       -0.0633
      5 N         143.6848  138.1182  156.3553 N.ar    1  UNL1       -0.1287
      6 C         143.0029  133.0981  156.7388 C.ar    1  UNL1        0.1547
      7 C         143.3253  134.4762  157.2357 C.ar    1  UNL1        0.0400
      8 C         142.6483  135.6695  156.6293 C.ar    1  UNL1        0.0241
      9 C         141.6489  135.4848  155.5263 C.ar    1  UNL1        0.0033
     10 C         141.3264  134.1067  155.0294 C.ar    1  UNL1        0.0207
     11 C         142.0035  132.9134  155.6357 C.ar    1  UNL1        0.0994
     12 N         141.6810  131.5352  155.1389 N.ar    1  UNL1       -0.2839
     13 C         140.3085  130.9952  154.8656 C.ar    1  UNL1        0.1826
     14 N         140.4537  129.5814  154.3860 N.ar    1  UNL1       -0.2280
     15 C         141.9159  129.2477  154.3629 C.ar    1  UNL1        0.0786
     16 C         142.5145  127.9365  153.9474 C.3     1  UNL1        0.0538
     17 C         142.6744  130.4552  154.8282 C.ar    1  UNL1        0.0963
     18 C         145.0848  132.0198  157.8581 C.3     1  UNL1        0.2525
     19 O         143.6799  131.9048  157.3452 O.3     1  UNL1       -0.4700
     20 C         143.0225  139.9331  159.7218 C.3     1  UNL1        0.2141
     21 C         141.9615  139.6990  160.7559 C.2     1  UNL1        0.2545
     22 O         140.5401  140.0855  160.4728 O.2     1  UNL1       -0.2724
     23 N         142.3219  139.0784  162.0730 N.am    1  UNL1       -0.2488
     24 C         141.2609  138.8443  163.1072 C.ar    1  UNL1        0.0542
     25 C         140.1965  137.8144  162.8698 C.ar    1  UNL1        0.0149
     26 C         139.1355  137.5802  163.9039 C.ar    1  UNL1        0.0013
     27 C         139.1389  138.3760  165.1754 C.ar    1  UNL1        0.0001
     28 C         138.0779  138.1418  166.2095 C.ar    1  UNL1        0.0000
     29 C         138.0813  138.9375  167.4810 C.ar    1  UNL1        0.0000
     30 C         139.1457  139.9674  167.7184 C.ar    1  UNL1        0.0000
     31 C         140.2067  140.2016  166.6843 C.ar    1  UNL1        0.0000
     32 C         140.2033  139.4059  165.4128 C.ar    1  UNL1        0.0012
     33 C         141.2643  139.6400  164.3787 C.ar    1  UNL1        0.0149
     34 C         143.7434  138.6920  162.3560 C.3     1  UNL1        0.2016
     35 C         144.5703  139.5137  163.2999 C.3     1  UNL1        0.4160
     36 F         145.3972  140.3354  164.2438 F       1  UNL1       -0.1682
     37 F         144.9060  140.4579  162.1838 F       1  UNL1       -0.1682
     38 F         144.2346  138.5695  164.4160 F       1  UNL1       -0.1682
@<TRIPOS>BOND
     1    18    19    1
     2    19     6    1
     3     6     7   ar
     4     7     8   ar
     5     8     1    1
     6     1     2   ar
     7     2     3   ar
     8     3    20    1
     9    20    21    1
    10    21    22    2
    11    21    23   am
    12    23    34    1
    13    34    35    1
    14    35    36    1
    15    35    37    1
    16    35    38    1
    17    23    24    1
    18    24    25   ar
    19    25    26   ar
    20    26    27   ar
    21    27    28   ar
    22    28    29   ar
    23    29    30   ar
    24    30    31   ar
    25    31    32   ar
    26    32    33   ar
    27     3     4   ar
    28     4     5   ar
    29     8     9   ar
    30     9    10   ar
    31    10    11   ar
    32    11    12    1
    33    12    13   ar
    34    13    14   ar
    35    14    15   ar
    36    15    16    1
    37    15    17   ar
    38    11     6   ar
    39    17    12   ar
    40     5     1   ar
    41    33    24   ar
    42    32    27   ar
@<TRIPOS>MOLECULE
*****
 38 42 0 0 0
SMALL
GASTEIGER

@<TRIPOS>ATOM
      1 C         142.1527  141.9680  159.6018 C.ar    1  UNL1        0.1233
      2 C         141.8377  142.2062  161.0489 C.ar    1  UNL1        0.1181
      3 N         142.0017  143.6717  161.3237 N.ar    1  UNL1       -0.2208
      4 N         142.4180  144.3391  160.0465 N.ar    1  UNL1       -0.0633
      5 N         142.5114  143.2862  158.9823 N.ar    1  UNL1       -0.1287
      6 C         143.1602  138.9578  157.2197 C.ar    1  UNL1        0.1547
      7 C         143.1973  140.2818  157.9237 C.ar    1  UNL1        0.0400
      8 C         142.1156  140.6439  158.8978 C.ar    1  UNL1        0.0241
      9 C         140.9968  139.6821  159.1679 C.ar    1  UNL1        0.0033
     10 C         140.9596  138.3580  158.4640 C.ar    1  UNL1        0.0207
     11 C         142.0414  137.9959  157.4899 C.ar    1  UNL1        0.0994
     12 N         142.0043  136.6719  156.7859 N.ar    1  UNL1       -0.2839
     13 C         141.0360  136.2708  155.7127 C.ar    1  UNL1        0.1826
     14 N         141.3622  134.8676  155.2950 N.ar    1  UNL1       -0.2280
     15 C         142.5321  134.4014  156.1100 C.ar    1  UNL1        0.0786
     16 C         143.1897  133.0563  156.0194 C.3     1  UNL1        0.0538
     17 C         142.9289  135.5166  157.0313 C.ar    1  UNL1        0.0963
     18 C         144.0738  138.9079  154.7882 C.3     1  UNL1        0.2525
     19 O         144.2418  138.5957  156.2456 O.3     1  UNL1       -0.4700
     20 C         141.7870  144.3506  162.6440 C.3     1  UNL1        0.2141
     21 C         141.8259  143.5520  163.9131 C.2     1  UNL1        0.2545
     22 O         143.1402  143.2536  164.5716 O.2     1  UNL1       -0.2724
     23 N         140.5504  143.0517  164.5237 N.am    1  UNL1       -0.2488
     24 C         140.5892  142.2530  165.7929 C.ar    1  UNL1        0.0542
     25 C         140.7063  140.7587  165.7353 C.ar    1  UNL1        0.0149
     26 C         140.7451  139.9600  167.0044 C.ar    1  UNL1        0.0013
     27 C         140.6669  140.6556  168.3311 C.ar    1  UNL1        0.0001
     28 C         140.7057  139.8570  169.6001 C.ar    1  UNL1        0.0000
     29 C         140.6274  140.5526  170.9267 C.ar    1  UNL1        0.0000
     30 C         140.5104  142.0469  170.9843 C.ar    1  UNL1        0.0000
     31 C         140.4715  142.8456  169.7152 C.ar    1  UNL1        0.0000
     32 C         140.5498  142.1500  168.3886 C.ar    1  UNL1        0.0012
     33 C         140.5110  142.9486  167.1195 C.ar    1  UNL1        0.0149
     34 C         139.2361  143.3500  163.8652 C.3     1  UNL1        0.2016
     35 C         138.1412  144.0167  164.6442 C.3     1  UNL1        0.4160
     36 F         137.0463  144.6833  165.4231 F       1  UNL1       -0.1682
     37 F         138.9037  145.3079  164.6108 F       1  UNL1       -0.1682
     38 F         137.3787  142.7254  164.6775 F       1  UNL1       -0.1682
@<TRIPOS>BOND
     1    18    19    1
     2    19     6    1
     3     6     7   ar
     4     7     8   ar
     5     8     1    1
     6     1     2   ar
     7     2     3   ar
     8     3    20    1
     9    20    21    1
    10    21    22    2
    11    21    23   am
    12    23    34    1
    13    34    35    1
    14    35    36    1
    15    35    37    1
    16    35    38    1
    17    23    24    1
    18    24    25   ar
    19    25    26   ar
    20    26    27   ar
    21    27    28   ar
    22    28    29   ar
    23    29    30   ar
    24    30    31   ar
    25    31    32   ar
    26    32    33   ar
    27     3     4   ar
    28     4     5   ar
    29     8     9   ar
    30     9    10   ar
    31    10    11   ar
    32    11    12    1
    33    12    13   ar
    34    13    14   ar
    35    14    15   ar
    36    15    16    1
    37    15    17   ar
    38    11     6   ar
    39    17    12   ar
    40     5     1   ar
    41    33    24   ar
    42    32    27   ar
@<TRIPOS>MOLECULE
*****
 38 42 0 0 0
SMALL
GASTEIGER

@<TRIPOS>ATOM
      1 C         139.5123  142.9787  159.3341 C.ar    1  UNL1        0.1233
      2 C         140.5152  141.9801  159.8309 C.ar    1  UNL1        0.1181
      3 N         139.9088  141.2538  160.9948 N.ar    1  UNL1       -0.2208
      4 N         138.5310  141.8035  161.2173 N.ar    1  UNL1       -0.0633
      5 N         138.2859  142.8696  160.1910 N.ar    1  UNL1       -0.1287
      6 C         139.2219  144.5876  155.7178 C.ar    1  UNL1        0.1547
      7 C         139.0319  143.6453  156.8693 C.ar    1  UNL1        0.0400
      8 C         139.7023  143.9210  158.1825 C.ar    1  UNL1        0.0241
      9 C         140.5626  145.1390  158.3443 C.ar    1  UNL1        0.0033
     10 C         140.7527  146.0813  157.1928 C.ar    1  UNL1        0.0207
     11 C         140.0823  145.8055  155.8796 C.ar    1  UNL1        0.0994
     12 N         140.2723  146.7478  154.7280 N.ar    1  UNL1       -0.2839
     13 C         141.0820  146.4800  153.4940 C.ar    1  UNL1        0.1826
     14 N         140.9961  147.6900  152.6117 N.ar    1  UNL1       -0.2280
     15 C         140.1333  148.7056  153.3003 C.ar    1  UNL1        0.0786
     16 C         139.7799  150.0649  152.7735 C.3     1  UNL1        0.0538
     17 C         139.6860  148.1233  154.6083 C.ar    1  UNL1        0.0963
     18 C         137.0612  144.4309  154.2837 C.3     1  UNL1        0.2525
     19 O         138.5516  144.3118  154.4046 O.3     1  UNL1       -0.4700
     20 C         140.5649  140.1683  161.7956 C.3     1  UNL1        0.2141
     21 C         141.1283  140.4730  163.1519 C.2     1  UNL1        0.2545
     22 O         142.4155  141.2333  163.2759 O.2     1  UNL1       -0.2724
     23 N         140.4047  140.0176  164.3843 N.am    1  UNL1       -0.2488
     24 C         140.9681  140.3223  165.7407 C.ar    1  UNL1        0.0542
     25 C         142.0154  139.4285  166.3359 C.ar    1  UNL1        0.0149
     26 C         142.5788  139.7332  167.6922 C.ar    1  UNL1        0.0013
     27 C         142.0949  140.9318  168.4534 C.ar    1  UNL1        0.0001
     28 C         142.6584  141.2365  169.8097 C.ar    1  UNL1        0.0000
     29 C         142.1745  142.4351  170.5709 C.ar    1  UNL1        0.0000
     30 C         141.1273  143.3289  169.9756 C.ar    1  UNL1        0.0000
     31 C         140.5638  143.0242  168.6193 C.ar    1  UNL1        0.0000
     32 C         141.0477  141.8257  167.8582 C.ar    1  UNL1        0.0012
     33 C         140.4843  141.5209  166.5018 C.ar    1  UNL1        0.0149
     34 C         139.1175  139.2574  164.2604 C.3     1  UNL1        0.2016
     35 C         138.5458  138.5511  165.4537 C.3     1  UNL1        0.4160
     36 F         137.9740  137.8448  166.6471 F       1  UNL1       -0.1682
     37 F         139.3949  137.3522  165.1511 F       1  UNL1       -0.1682
     38 F         137.6966  139.7499  165.7564 F       1  UNL1       -0.1682
@<TRIPOS>BOND
     1    18    19    1
     2    19     6    1
     3     6     7   ar
     4     7     8   ar
     5     8     1    1
     6     1     2   ar
     7     2     3   ar
     8     3    20    1
     9    20    21    1
    10    21    22    2
    11    21    23   am
    12    23    34    1
    13    34    35    1
    14    35    36    1
    15    35    37    1
    16    35    38    1
    17    23    24    1
    18    24    25   ar
    19    25    26   ar
    20    26    27   ar
    21    27    28   ar
    22    28    29   ar
    23    29    30   ar
    24    30    31   ar
    25    31    32   ar
    26    32    33   ar
    27     3     4   ar
    28     4     5   ar
    29     8     9   ar
    30     9    10   ar
    31    10    11   ar
    32    11    12    1
    33    12    13   ar
    34    13    14   ar
    35    14    15   ar
    36    15    16    1
    37    15    17   ar
    38    11     6   ar
    39    17    12   ar
    40     5     1   ar
    41    33    24   ar
    42    32    27   ar
@<TRIPOS>MOLECULE
*****
 38 42 0 0 0
SMALL
GASTEIGER

@<TRIPOS>ATOM
      1 C         139.8970  142.1238  159.9990 C.ar    1  UNL1        0.1233
      2 C         139.6176  141.3801  161.2714 C.ar    1  UNL1        0.1181
      3 N         138.2983  141.8540  161.8051 N.ar    1  UNL1       -0.2208
      4 N         137.7623  142.8905  160.8626 N.ar    1  UNL1       -0.0633
      5 N         138.7503  143.0573  159.7464 N.ar    1  UNL1       -0.1287
      6 C         142.8924  140.4353  158.0175 C.ar    1  UNL1        0.1547
      7 C         141.6793  140.5967  158.8850 C.ar    1  UNL1        0.0400
      8 C         141.1101  141.9624  159.1316 C.ar    1  UNL1        0.0241
      9 C         141.7538  143.1666  158.5110 C.ar    1  UNL1        0.0033
     10 C         142.9669  143.0053  157.6435 C.ar    1  UNL1        0.0207
     11 C         143.5362  141.6395  157.3969 C.ar    1  UNL1        0.0994
     12 N         144.7493  141.4781  156.5295 N.ar    1  UNL1       -0.2839
     13 C         144.8025  140.7619  155.2125 C.ar    1  UNL1        0.1826
     14 N         146.2082  140.8456  154.6958 N.ar    1  UNL1       -0.2280
     15 C         147.0237  141.6136  155.6934 C.ar    1  UNL1        0.0786
     16 C         148.4845  141.9344  155.5780 C.3     1  UNL1        0.0538
     17 C         146.1220  142.0045  156.8267 C.ar    1  UNL1        0.0963
     18 C         142.7481  137.8553  158.2866 C.3     1  UNL1        0.2525
     19 O         143.4617  139.0696  157.7709 O.3     1  UNL1       -0.4700
     20 C         137.6319  141.3753  163.0608 C.3     1  UNL1        0.2141
     21 C         138.3293  141.5177  164.3811 C.2     1  UNL1        0.2545
     22 O         138.4783  142.8721  165.0084 O.2     1  UNL1       -0.2724
     23 N         138.8777  140.3058  165.0742 N.am    1  UNL1       -0.2488
     24 C         139.5752  140.4482  166.3946 C.ar    1  UNL1        0.0542
     25 C         138.9797  139.8352  167.6273 C.ar    1  UNL1        0.0149
     26 C         139.6771  139.9776  168.9476 C.ar    1  UNL1        0.0013
     27 C         140.9701  140.7330  169.0353 C.ar    1  UNL1        0.0001
     28 C         141.6675  140.8754  170.3556 C.ar    1  UNL1        0.0000
     29 C         142.9604  141.6307  170.4432 C.ar    1  UNL1        0.0000
     30 C         143.5559  142.2438  169.2105 C.ar    1  UNL1        0.0000
     31 C         142.8585  142.1014  167.8901 C.ar    1  UNL1        0.0000
     32 C         141.5656  141.3460  167.8025 C.ar    1  UNL1        0.0012
     33 C         140.8681  141.2036  166.4822 C.ar    1  UNL1        0.0149
     34 C         138.7287  138.9514  164.4470 C.3     1  UNL1        0.2016
     35 C         139.8043  137.9209  164.6231 C.3     1  UNL1        0.4160
     36 F         140.8798  136.8903  164.7992 F       1  UNL1       -0.1682
     37 F         140.7436  138.7625  163.8112 F       1  UNL1       -0.1682
     38 F         138.8649  137.0792  165.4350 F       1  UNL1       -0.1682
@<TRIPOS>BOND
     1    18    19    1
     2    19     6    1
     3     6     7   ar
     4     7     8   ar
     5     8     1    1
     6     1     2   ar
     7     2     3   ar
     8     3    20    1
     9    20    21    1
    10    21    22    2
    11    21    23   am
    12    23    34    1
    13    34    35    1
    14    35    36    1
    15    35    37    1
    16    35    38    1
    17    23    24    1
    18    24    25   ar
    19    25    26   ar
    20    26    27   ar
    21    27    28   ar
    22    28    29   ar
    23    29    30   ar
    24    30    31   ar
    25    31    32   ar
    26    32    33   ar
    27     3     4   ar
    28     4     5   ar
    29     8     9   ar
    30     9    10   ar
    31    10    11   ar
    32    11    12    1
    33    12    13   ar
    34    13    14   ar
    35    14    15   ar
    36    15    16    1
    37    15    17   ar
    38    11     6   ar
    39    17    12   ar
    40     5     1   ar
    41    33    24   ar
    42    32    27   ar
@<TRIPOS>MOLECULE
*****
 38 42 0 0 0
SMALL
GASTEIGER

@<TRIPOS>ATOM
      1 C         141.9952  139.0215  158.8106 C.ar    1  UNL1        0.1233
      2 C         143.1402  139.2483  159.7527 C.ar    1  UNL1        0.1181
      3 N         142.8416  140.4784  160.5575 N.ar    1  UNL1       -0.2208
      4 N         141.5121  141.0119  160.1127 N.ar    1  UNL1       -0.0633
      5 N         140.9889  140.1115  159.0331 N.ar    1  UNL1       -0.1287
      6 C         142.8145  135.7170  156.7712 C.ar    1  UNL1        0.1547
      7 C         142.9325  136.8371  157.7619 C.ar    1  UNL1        0.0400
      8 C         141.8771  137.9014  157.8200 C.ar    1  UNL1        0.0241
      9 C         140.7037  137.8456  156.8874 C.ar    1  UNL1        0.0033
     10 C         140.5855  136.7255  155.8967 C.ar    1  UNL1        0.0207
     11 C         141.6410  135.6612  155.8387 C.ar    1  UNL1        0.0994
     12 N         141.5230  134.5411  154.8480 N.ar    1  UNL1       -0.2839
     13 C         141.7641  134.6414  153.3708 C.ar    1  UNL1        0.1826
     14 N         141.5332  133.2864  152.7705 N.ar    1  UNL1       -0.2280
     15 C         141.1494  132.3486  153.8765 C.ar    1  UNL1        0.0786
     16 C         140.8282  130.8912  153.7251 C.3     1  UNL1        0.0538
     17 C         141.1430  133.1241  155.1605 C.ar    1  UNL1        0.0963
     18 C         143.9657  133.6310  157.8073 C.3     1  UNL1        0.2525
     19 O         143.8699  134.6527  156.7132 O.3     1  UNL1       -0.4700
     20 C         143.7186  141.0711  161.6204 C.3     1  UNL1        0.2141
     21 C         143.1046  141.6795  162.8462 C.2     1  UNL1        0.2545
     22 O         142.8234  143.1521  162.8923 O.2     1  UNL1       -0.2724
     23 N         142.7718  140.8151  164.0261 N.am    1  UNL1       -0.2488
     24 C         142.1577  141.4235  165.2521 C.ar    1  UNL1        0.0542
     25 C         140.7232  141.8613  165.2339 C.ar    1  UNL1        0.0149
     26 C         140.1091  142.4696  166.4598 C.ar    1  UNL1        0.0013
     27 C         140.9296  142.6401  167.7039 C.ar    1  UNL1        0.0001
     28 C         140.3155  143.2485  168.9298 C.ar    1  UNL1        0.0000
     29 C         141.1360  143.4190  170.1738 C.ar    1  UNL1        0.0000
     30 C         142.5706  142.9811  170.1920 C.ar    1  UNL1        0.0000
     31 C         143.1846  142.3728  168.9661 C.ar    1  UNL1        0.0000
     32 C         142.3641  142.2023  167.7221 C.ar    1  UNL1        0.0012
     33 C         142.9782  141.5940  166.4961 C.ar    1  UNL1        0.0149
     34 C         143.0530  139.3424  163.9801 C.3     1  UNL1        0.2016
     35 C         143.7912  138.6843  165.1078 C.3     1  UNL1        0.4160
     36 F         144.5295  138.0261  166.2355 F       1  UNL1       -0.1682
     37 F         145.0670  139.3237  164.6458 F       1  UNL1       -0.1682
     38 F         142.5155  138.0449  165.5698 F       1  UNL1       -0.1682
@<TRIPOS>BOND
     1    18    19    1
     2    19     6    1
     3     6     7   ar
     4     7     8   ar
     5     8     1    1
     6     1     2   ar
     7     2     3   ar
     8     3    20    1
     9    20    21    1
    10    21    22    2
    11    21    23   am
    12    23    34    1
    13    34    35    1
    14    35    36    1
    15    35    37    1
    16    35    38    1
    17    23    24    1
    18    24    25   ar
    19    25    26   ar
    20    26    27   ar
    21    27    28   ar
    22    28    29   ar
    23    29    30   ar
    24    30    31   ar
    25    31    32   ar
    26    32    33   ar
    27     3     4   ar
    28     4     5   ar
    29     8     9   ar
    30     9    10   ar
    31    10    11   ar
    32    11    12    1
    33    12    13   ar
    34    13    14   ar
    35    14    15   ar
    36    15    16    1
    37    15    17   ar
    38    11     6   ar
    39    17    12   ar
    40     5     1   ar
    41    33    24   ar
    42    32    27   ar
@<TRIPOS>MOLECULE
*****
 38 42 0 0 0
SMALL
GASTEIGER

@<TRIPOS>ATOM
      1 C         142.3650  141.6983  158.9778 C.ar    1  UNL1        0.1233
      2 C         141.6684  142.0689  160.2535 C.ar    1  UNL1        0.1181
      3 N         142.0159  143.4922  160.5750 N.ar    1  UNL1       -0.2208
      4 N         142.9274  144.0013  159.4979 N.ar    1  UNL1       -0.0633
      5 N         143.1432  142.8927  158.5108 N.ar    1  UNL1       -0.1287
      6 C         143.3479  138.5937  156.7095 C.ar    1  UNL1        0.1547
      7 C         143.4172  139.9248  157.3975 C.ar    1  UNL1        0.0400
      8 C         142.2957  140.3672  158.2899 C.ar    1  UNL1        0.0241
      9 C         141.1048  139.4785  158.4944 C.ar    1  UNL1        0.0033
     10 C         141.0354  138.1473  157.8065 C.ar    1  UNL1        0.0207
     11 C         142.1571  137.7050  156.9140 C.ar    1  UNL1        0.0994
     12 N         142.0877  136.3738  156.2261 N.ar    1  UNL1       -0.2839
     13 C         141.5246  136.1156  154.8599 C.ar    1  UNL1        0.1826
     14 N         141.6582  134.6494  154.5730 N.ar    1  UNL1       -0.2280
     15 C         142.3039  134.0014  155.7618 C.ar    1  UNL1        0.0786
     16 C         142.6274  132.5436  155.9039 C.3     1  UNL1        0.0538
     17 C         142.5694  135.0672  156.7834 C.ar    1  UNL1        0.0963
     18 C         144.9095  139.0222  154.6779 C.3     1  UNL1        0.2525
     19 O         144.4695  138.1513  155.8171 O.3     1  UNL1       -0.4700
     20 C         141.5363  144.2699  161.7646 C.3     1  UNL1        0.2141
     21 C         140.9346  143.5526  162.9366 C.2     1  UNL1        0.2545
     22 O         139.4443  143.4979  163.0979 O.2     1  UNL1       -0.2724
     23 N         141.8232  142.8901  163.9472 N.am    1  UNL1       -0.2488
     24 C         141.2215  142.1728  165.1192 C.ar    1  UNL1        0.0542
     25 C         140.7327  140.7631  164.9654 C.ar    1  UNL1        0.0149
     26 C         140.1310  140.0458  166.1373 C.ar    1  UNL1        0.0013
     27 C         140.0182  140.7383  167.4632 C.ar    1  UNL1        0.0001
     28 C         139.4166  140.0210  168.6351 C.ar    1  UNL1        0.0000
     29 C         139.3038  140.7134  169.9609 C.ar    1  UNL1        0.0000
     30 C         139.7927  142.1232  170.1147 C.ar    1  UNL1        0.0000
     31 C         140.3943  142.8405  168.9428 C.ar    1  UNL1        0.0000
     32 C         140.5071  142.1480  167.6170 C.ar    1  UNL1        0.0012
     33 C         141.1088  142.8653  166.4450 C.ar    1  UNL1        0.0149
     34 C         143.3135  142.9448  163.7858 C.3     1  UNL1        0.2016
     35 C         144.1667  143.5062  164.8844 C.3     1  UNL1        0.4160
     36 F         145.0199  144.0676  165.9829 F       1  UNL1       -0.1682
     37 F         143.7896  144.8967  164.4666 F       1  UNL1       -0.1682
     38 F         144.5438  142.1158  165.3021 F       1  UNL1       -0.1682
@<TRIPOS>BOND
     1    18    19    1
     2    19     6    1
     3     6     7   ar
     4     7     8   ar
     5     8     1    1
     6     1     2   ar
     7     2     3   ar
     8     3    20    1
     9    20    21    1
    10    21    22    2
    11    21    23   am
    12    23    34    1
    13    34    35    1
    14    35    36    1
    15    35    37    1
    16    35    38    1
    17    23    24    1
    18    24    25   ar
    19    25    26   ar
    20    26    27   ar
    21    27    28   ar
    22    28    29   ar
    23    29    30   ar
    24    30    31   ar
    25    31    32   ar
    26    32    33   ar
    27     3     4   ar
    28     4     5   ar
    29     8     9   ar
    30     9    10   ar
    31    10    11   ar
    32    11    12    1
    33    12    13   ar
    34    13    14   ar
    35    14    15   ar
    36    15    16    1
    37    15    17   ar
    38    11     6   ar
    39    17    12   ar
    40     5     1   ar
    41    33    24   ar
    42    32    27   ar
