@<TRIPOS>MOLECULE
*****
 31 33 0 0 0
SMALL
GASTEIGER

@<TRIPOS>ATOM
      1 N         139.4112  140.0386  167.3590 N.am    1  UNL1       -0.2475
      2 C         139.3977  140.3004  168.8358 C.2     1  UNL1        0.2560
      3 O         138.3666  139.6432  169.7047 O.2     1  UNL1       -0.2695
      4 C         140.4156  141.2193  169.4440 C.ar    1  UNL1        0.0877
      5 C         140.2325  142.7054  169.3547 C.ar    1  UNL1        0.0107
      6 C         141.2502  143.6243  169.9628 C.ar    1  UNL1        0.0370
      7 C         142.4511  143.0571  170.6602 C.ar    1  UNL1        0.1367
      8 O         143.4688  143.9760  171.2683 O.3     1  UNL1       -0.5054
      9 C         142.6341  141.5710  170.7495 C.ar    1  UNL1        0.0733
     10 C         141.6163  140.6521  170.1413 C.ar    1  UNL1        0.1410
     11 O         141.7994  139.1659  170.2306 O.3     1  UNL1       -0.5053
     12 H         143.3544  144.9043  171.2125 H       1  UNL1        0.2922
     13 H         142.5495  138.8116  170.6662 H       1  UNL1        0.2922
     14 C         142.5047  142.0100  164.7524 C.ar    1  UNL1        0.0537
     15 C         141.1601  142.6493  164.9350 C.ar    1  UNL1        0.0058
     16 C         140.1289  141.9922  165.8038 C.ar    1  UNL1        0.0151
     17 C         140.4423  140.6957  166.4901 C.ar    1  UNL1        0.0546
     18 C         141.7869  140.0564  166.3076 C.ar    1  UNL1        0.0151
     19 C         142.8181  140.7135  165.4387 C.ar    1  UNL1        0.0058
     20 C         144.6682  142.9587  161.5636 C.3     1  UNL1        0.1152
     21 N         143.6370  142.3015  162.4324 N.am    1  UNL1       -0.2726
     22 C         142.7070  141.2788  161.8499 C.3     1  UNL1        0.1152
     23 C         143.5358  142.6671  163.8836 C.2     1  UNL1        0.2491
     24 O         144.4658  143.6898  164.4660 O.2     1  UNL1       -0.2699
     25 C         138.3934  139.1197  166.7509 C.3     1  UNL1        0.1628
     26 C         138.4711  138.7738  165.2934 C.ar    1  UNL1        0.1440
     27 C         139.0439  137.5135  164.7157 C.ar    1  UNL1        0.0384
     28 C         138.9165  137.5882  163.2230 C.ar    1  UNL1        0.0473
     29 C         138.2650  138.8946  162.8781 C.ar    1  UNL1        0.1787
     30 BR        137.9450  139.3826  161.4963 Br      1  UNL1       -0.0078
     31 O         137.9898  139.6274  164.1577 O.2     1  UNL1       -0.4495
@<TRIPOS>BOND
     1    20    21    1
     2    21    22    1
     3    21    23   am
     4    23    24    2
     5    23    14    1
     6    14    15   ar
     7    15    16   ar
     8    16    17   ar
     9    17     1    1
    10     1    25    1
    11    25    26    1
    12    26    27   ar
    13    27    28   ar
    14    28    29   ar
    15    29    30    1
    16    29    31   ar
    17     1     2   am
    18     2     3    2
    19     2     4    1
    20     4     5   ar
    21     5     6   ar
    22     6     7   ar
    23     7     8    1
    24     7     9   ar
    25     9    10   ar
    26    10    11    1
    27    17    18   ar
    28    18    19   ar
    29    19    14   ar
    30    31    26   ar
    31    10     4   ar
    32     8    12    1
    33    11    13    1
@<TRIPOS>MOLECULE
*****
 31 33 0 0 0
SMALL
GASTEIGER

@<TRIPOS>ATOM
      1 N         142.6404  139.7107  166.9443 N.am    1  UNL1       -0.2475
      2 C         142.4361  139.5503  168.4216 C.2     1  UNL1        0.2560
      3 O         143.0950  138.4175  169.1513 O.2     1  UNL1       -0.2695
      4 C         141.5727  140.5229  169.1693 C.ar    1  UNL1        0.0877
      5 C         140.1132  140.2357  169.3623 C.ar    1  UNL1        0.0107
      6 C         139.2499  141.2081  170.1099 C.ar    1  UNL1        0.0370
      7 C         139.8461  142.4679  170.6646 C.ar    1  UNL1        0.1367
      8 O         138.9828  143.4403  171.4122 O.3     1  UNL1       -0.5054
      9 C         141.3057  142.7551  170.4716 C.ar    1  UNL1        0.0733
     10 C         142.1690  141.7825  169.7240 C.ar    1  UNL1        0.1410
     11 O         143.6285  142.0698  169.5310 O.3     1  UNL1       -0.5053
     12 H         138.0711  143.2609  171.5327 H       1  UNL1        0.2922
     13 H         144.0010  142.8566  169.8775 H       1  UNL1        0.2922
     14 C         140.6637  143.1092  164.7552 C.ar    1  UNL1        0.0537
     15 C         142.0618  143.2647  165.2757 C.ar    1  UNL1        0.0058
     16 C         142.7207  142.1318  166.0054 C.ar    1  UNL1        0.0151
     17 C         141.9815  140.8435  166.2146 C.ar    1  UNL1        0.0546
     18 C         140.5834  140.6881  165.6941 C.ar    1  UNL1        0.0151
     19 C         139.9245  141.8209  164.9643 C.ar    1  UNL1        0.0058
     20 C         139.7435  145.6900  161.8842 C.3     1  UNL1        0.1152
     21 N         140.4024  144.5572  162.6139 N.am    1  UNL1       -0.2726
     22 C         141.4590  143.7394  161.9320 C.3     1  UNL1        0.1152
     23 C         140.0048  144.2421  164.0254 C.2     1  UNL1        0.2491
     24 O         138.9482  145.0598  164.7073 O.2     1  UNL1       -0.2699
     25 C         143.5037  138.7382  166.1967 C.3     1  UNL1        0.1628
     26 C         143.5631  138.7857  164.6987 C.ar    1  UNL1        0.1440
     27 C         144.5885  139.5119  163.8795 C.ar    1  UNL1        0.0384
     28 C         144.2667  139.2904  162.4313 C.ar    1  UNL1        0.0473
     29 C         143.0423  138.4272  162.3554 C.ar    1  UNL1        0.1787
     30 BR        142.3706  137.9582  161.0988 Br      1  UNL1       -0.0078
     31 O         142.6074  138.1152  163.7567 O.2     1  UNL1       -0.4495
@<TRIPOS>BOND
     1    20    21    1
     2    21    22    1
     3    21    23   am
     4    23    24    2
     5    23    14    1
     6    14    15   ar
     7    15    16   ar
     8    16    17   ar
     9    17     1    1
    10     1    25    1
    11    25    26    1
    12    26    27   ar
    13    27    28   ar
    14    28    29   ar
    15    29    30    1
    16    29    31   ar
    17     1     2   am
    18     2     3    2
    19     2     4    1
    20     4     5   ar
    21     5     6   ar
    22     6     7   ar
    23     7     8    1
    24     7     9   ar
    25     9    10   ar
    26    10    11    1
    27    17    18   ar
    28    18    19   ar
    29    19    14   ar
    30    31    26   ar
    31    10     4   ar
    32     8    12    1
    33    11    13    1
@<TRIPOS>MOLECULE
*****
 31 33 0 0 0
SMALL
GASTEIGER

@<TRIPOS>ATOM
      1 N         139.7775  140.0969  167.3092 N.am    1  UNL1       -0.2475
      2 C         138.6799  139.2261  166.7737 C.2     1  UNL1        0.2560
      3 O         137.6140  138.7113  167.6949 O.2     1  UNL1       -0.2695
      4 C         138.6481  138.8702  165.3168 C.ar    1  UNL1        0.0877
      5 C         139.1896  137.5497  164.8554 C.ar    1  UNL1        0.0107
      6 C         139.1579  137.1937  163.3986 C.ar    1  UNL1        0.0370
      7 C         138.5845  138.1583  162.4032 C.ar    1  UNL1        0.1367
      8 O         138.5527  137.8023  160.9464 O.3     1  UNL1       -0.5054
      9 C         138.0429  139.4788  162.8646 C.ar    1  UNL1        0.0733
     10 C         138.0747  139.8348  164.3214 C.ar    1  UNL1        0.1410
     11 O         137.5331  141.1553  164.7828 O.3     1  UNL1       -0.5053
     12 H         138.8910  136.9775  160.6582 H       1  UNL1        0.2922
     13 H         137.1749  141.7578  164.1610 H       1  UNL1        0.2922
     14 C         142.9753  141.6415  164.5454 C.ar    1  UNL1        0.0537
     15 C         143.0798  140.2574  165.1139 C.ar    1  UNL1        0.0058
     16 C         142.0139  139.7425  166.0351 C.ar    1  UNL1        0.0151
     17 C         140.8434  140.6118  166.3879 C.ar    1  UNL1        0.0546
     18 C         140.7389  141.9959  165.8194 C.ar    1  UNL1        0.0151
     19 C         141.8049  142.5108  164.8982 C.ar    1  UNL1        0.0058
     20 C         144.9156  142.5942  161.2171 C.3     1  UNL1        0.1152
     21 N         143.8497  142.0794  162.1384 N.am    1  UNL1       -0.2726
     22 C         142.5923  141.4874  161.5739 C.3     1  UNL1        0.1152
     23 C         144.0412  142.1564  163.6241 C.2     1  UNL1        0.2491
     24 O         145.2985  142.7484  164.1885 O.2     1  UNL1       -0.2699
     25 C         139.8093  140.4528  168.7660 C.3     1  UNL1        0.1628
     26 C         140.8108  141.4476  169.2734 C.ar    1  UNL1        0.1440
     27 C         140.5041  142.8212  169.7921 C.ar    1  UNL1        0.0384
     28 C         141.7986  143.4660  170.1904 C.ar    1  UNL1        0.0473
     29 C         142.9053  142.4909  169.9179 C.ar    1  UNL1        0.1787
     30 BR        144.3660  142.7225  170.1682 Br      1  UNL1       -0.0078
     31 O         142.2948  141.2434  169.3511 O.2     1  UNL1       -0.4495
@<TRIPOS>BOND
     1    20    21    1
     2    21    22    1
     3    21    23   am
     4    23    24    2
     5    23    14    1
     6    14    15   ar
     7    15    16   ar
     8    16    17   ar
     9    17     1    1
    10     1    25    1
    11    25    26    1
    12    26    27   ar
    13    27    28   ar
    14    28    29   ar
    15    29    30    1
    16    29    31   ar
    17     1     2   am
    18     2     3    2
    19     2     4    1
    20     4     5   ar
    21     5     6   ar
    22     6     7   ar
    23     7     8    1
    24     7     9   ar
    25     9    10   ar
    26    10    11    1
    27    17    18   ar
    28    18    19   ar
    29    19    14   ar
    30    31    26   ar
    31    10     4   ar
    32     8    12    1
    33    11    13    1
@<TRIPOS>MOLECULE
*****
 31 33 0 0 0
SMALL
GASTEIGER

@<TRIPOS>ATOM
      1 N         142.6824  139.7943  166.6235 N.am    1  UNL1       -0.2475
      2 C         143.3148  138.6728  165.8540 C.2     1  UNL1        0.2560
      3 O         143.9614  137.5332  166.5842 O.2     1  UNL1       -0.2695
      4 C         143.3007  138.6909  164.3541 C.ar    1  UNL1        0.0877
      5 C         144.3472  139.4599  163.6034 C.ar    1  UNL1        0.0107
      6 C         144.3331  139.4780  162.1037 C.ar    1  UNL1        0.0370
      7 C         143.2725  138.7271  161.3544 C.ar    1  UNL1        0.1367
      8 O         143.2584  138.7452  159.8546 O.3     1  UNL1       -0.5054
      9 C         142.2260  137.9581  162.1051 C.ar    1  UNL1        0.0733
     10 C         142.2401  137.9400  163.6050 C.ar    1  UNL1        0.1410
     11 O         141.1936  137.1710  164.3556 O.3     1  UNL1       -0.5053
     12 H         143.9121  139.2255  159.3857 H       1  UNL1        0.2922
     13 H         140.5310  136.7020  163.8876 H       1  UNL1        0.2922
     14 C         140.7427  143.2131  164.4328 C.ar    1  UNL1        0.0537
     15 C         142.1657  143.3282  164.8930 C.ar    1  UNL1        0.0058
     16 C         142.8123  142.1886  165.6232 C.ar    1  UNL1        0.0151
     17 C         142.0358  140.9339  165.8933 C.ar    1  UNL1        0.0546
     18 C         140.6128  140.8189  165.4331 C.ar    1  UNL1        0.0151
     19 C         139.9663  141.9585  164.7029 C.ar    1  UNL1        0.0058
     20 C         139.9003  145.8472  161.5864 C.3     1  UNL1        0.1152
     21 N         140.5469  144.7076  162.3167 N.am    1  UNL1       -0.2726
     22 C         141.6444  143.9229  161.6609 C.3     1  UNL1        0.1152
     23 C         140.0961  144.3527  163.7026 C.2     1  UNL1        0.2491
     24 O         138.9987  145.1374  164.3582 O.2     1  UNL1       -0.2699
     25 C         142.6966  139.7762  168.1233 C.3     1  UNL1        0.1628
     26 C         142.4575  141.0425  168.8910 C.ar    1  UNL1        0.1440
     27 C         143.4525  141.7431  169.7679 C.ar    1  UNL1        0.0384
     28 C         142.7915  142.9642  170.3354 C.ar    1  UNL1        0.0473
     29 C         141.3879  143.0182  169.8092 C.ar    1  UNL1        0.1787
     30 BR        140.3694  144.0745  170.1209 Br      1  UNL1       -0.0078
     31 O         141.1814  141.8306  168.9164 O.2     1  UNL1       -0.4495
@<TRIPOS>BOND
     1    20    21    1
     2    21    22    1
     3    21    23   am
     4    23    24    2
     5    23    14    1
     6    14    15   ar
     7    15    16   ar
     8    16    17   ar
     9    17     1    1
    10     1    25    1
    11    25    26    1
    12    26    27   ar
    13    27    28   ar
    14    28    29   ar
    15    29    30    1
    16    29    31   ar
    17     1     2   am
    18     2     3    2
    19     2     4    1
    20     4     5   ar
    21     5     6   ar
    22     6     7   ar
    23     7     8    1
    24     7     9   ar
    25     9    10   ar
    26    10    11    1
    27    17    18   ar
    28    18    19   ar
    29    19    14   ar
    30    31    26   ar
    31    10     4   ar
    32     8    12    1
    33    11    13    1
@<TRIPOS>MOLECULE
*****
 31 33 0 0 0
SMALL
GASTEIGER

@<TRIPOS>ATOM
      1 N         143.3168  142.4198  166.4491 N.am    1  UNL1       -0.2475
      2 C         144.2336  143.2549  165.6054 C.2     1  UNL1        0.2560
      3 O         145.2507  144.1440  166.2572 O.2     1  UNL1       -0.2695
      4 C         144.1332  143.2010  164.1096 C.ar    1  UNL1        0.0877
      5 C         143.0931  144.0145  163.3980 C.ar    1  UNL1        0.0107
      6 C         142.9928  143.9607  161.9023 C.ar    1  UNL1        0.0370
      7 C         143.9325  143.0933  161.1183 C.ar    1  UNL1        0.1367
      8 O         143.8321  143.0395  159.6226 O.3     1  UNL1       -0.5054
      9 C         144.9726  142.2798  161.8299 C.ar    1  UNL1        0.0733
     10 C         145.0729  142.3337  163.3257 C.ar    1  UNL1        0.1410
     11 O         146.1130  141.5202  164.0373 O.3     1  UNL1       -0.5053
     12 H         143.1824  143.5476  159.1781 H       1  UNL1        0.2922
     13 H         146.7000  140.9784  163.5476 H       1  UNL1        0.2922
     14 C         140.2653  139.7526  164.4935 C.ar    1  UNL1        0.0537
     15 C         141.6571  139.2483  164.7353 C.ar    1  UNL1        0.0058
     16 C         142.6742  140.1373  165.3872 C.ar    1  UNL1        0.0151
     17 C         142.2996  141.5307  165.7972 C.ar    1  UNL1        0.0546
     18 C         140.9078  142.0350  165.5553 C.ar    1  UNL1        0.0151
     19 C         139.8907  141.1460  164.9034 C.ar    1  UNL1        0.0058
     20 C         137.9134  138.1404  161.7331 C.3     1  UNL1        0.1152
     21 N         138.9306  139.0294  162.3850 N.am    1  UNL1       -0.2726
     22 C         139.6302  140.0844  161.5803 C.3     1  UNL1        0.1152
     23 C         139.2481  138.8635  163.8416 C.2     1  UNL1        0.2491
     24 O         138.5485  137.8086  164.6462 O.2     1  UNL1       -0.2699
     25 C         143.4171  142.4737  167.9447 C.3     1  UNL1        0.1628
     26 C         142.1887  142.2911  168.7859 C.ar    1  UNL1        0.1440
     27 C         141.6711  143.2555  169.8116 C.ar    1  UNL1        0.0384
     28 C         140.4247  142.6724  170.4087 C.ar    1  UNL1        0.0473
     29 C         140.1720  141.3476  169.7522 C.ar    1  UNL1        0.1787
     30 BR        139.0297  140.4212  170.0468 Br      1  UNL1       -0.0078
     31 O         141.2622  141.1119  168.7492 O.2     1  UNL1       -0.4495
@<TRIPOS>BOND
     1    20    21    1
     2    21    22    1
     3    21    23   am
     4    23    24    2
     5    23    14    1
     6    14    15   ar
     7    15    16   ar
     8    16    17   ar
     9    17     1    1
    10     1    25    1
    11    25    26    1
    12    26    27   ar
    13    27    28   ar
    14    28    29   ar
    15    29    30    1
    16    29    31   ar
    17     1     2   am
    18     2     3    2
    19     2     4    1
    20     4     5   ar
    21     5     6   ar
    22     6     7   ar
    23     7     8    1
    24     7     9   ar
    25     9    10   ar
    26    10    11    1
    27    17    18   ar
    28    18    19   ar
    29    19    14   ar
    30    31    26   ar
    31    10     4   ar
    32     8    12    1
    33    11    13    1
@<TRIPOS>MOLECULE
*****
 31 33 0 0 0
SMALL
GASTEIGER

@<TRIPOS>ATOM
      1 N         140.0972  139.4221  163.3295 N.am    1  UNL1       -0.2475
      2 C         139.3966  140.5838  162.6896 C.2     1  UNL1        0.2560
      3 O         138.9303  140.4876  161.2672 O.2     1  UNL1       -0.2695
      4 C         139.1622  141.8419  163.4722 C.ar    1  UNL1        0.0877
      5 C         140.3280  142.6529  163.9551 C.ar    1  UNL1        0.0107
      6 C         140.0937  143.9110  164.7377 C.ar    1  UNL1        0.0370
      7 C         138.6936  144.3581  165.0373 C.ar    1  UNL1        0.1367
      8 O         138.4593  145.6161  165.8198 O.3     1  UNL1       -0.5054
      9 C         137.5278  143.5471  164.5544 C.ar    1  UNL1        0.0733
     10 C         137.7621  142.2890  163.7718 C.ar    1  UNL1        0.1410
     11 O         136.5963  141.4780  163.2889 O.3     1  UNL1       -0.5053
     12 H         139.1875  146.1227  166.1215 H       1  UNL1        0.2922
     13 H         135.7217  141.7573  163.4760 H       1  UNL1        0.2922
     14 C         141.4960  139.7109  167.5968 C.ar    1  UNL1        0.0537
     15 C         140.0323  139.5842  167.2943 C.ar    1  UNL1        0.0058
     16 C         139.5660  139.4880  165.8719 C.ar    1  UNL1        0.0151
     17 C         140.5634  139.5184  164.7520 C.ar    1  UNL1        0.0546
     18 C         142.0271  139.6451  165.0545 C.ar    1  UNL1        0.0151
     19 C         142.4934  139.7413  166.4770 C.ar    1  UNL1        0.0058
     20 C         142.0857  141.1107  171.2633 C.3     1  UNL1        0.1152
     21 N         141.6194  141.0144  169.8408 N.am    1  UNL1       -0.2726
     22 C         140.8103  142.1255  169.2400 C.3     1  UNL1        0.1152
     23 C         141.9622  139.8072  169.0193 C.2     1  UNL1        0.2491
     24 O         142.7713  138.6962  169.6202 O.2     1  UNL1       -0.2699
     25 C         140.3315  138.1641  162.5470 C.3     1  UNL1        0.1628
     26 C         141.3826  138.1310  161.4773 C.ar    1  UNL1        0.1440
     27 C         142.8598  137.9903  161.6968 C.ar    1  UNL1        0.0384
     28 C         143.5312  138.0051  160.3555 C.ar    1  UNL1        0.0473
     29 C         142.4690  138.1550  159.3071 C.ar    1  UNL1        0.1787
     30 BR        142.6949  138.2163  157.8255 Br      1  UNL1       -0.0078
     31 O         141.1410  138.2328  160.0003 O.2     1  UNL1       -0.4495
@<TRIPOS>BOND
     1    20    21    1
     2    21    22    1
     3    21    23   am
     4    23    24    2
     5    23    14    1
     6    14    15   ar
     7    15    16   ar
     8    16    17   ar
     9    17     1    1
    10     1    25    1
    11    25    26    1
    12    26    27   ar
    13    27    28   ar
    14    28    29   ar
    15    29    30    1
    16    29    31   ar
    17     1     2   am
    18     2     3    2
    19     2     4    1
    20     4     5   ar
    21     5     6   ar
    22     6     7   ar
    23     7     8    1
    24     7     9   ar
    25     9    10   ar
    26    10    11    1
    27    17    18   ar
    28    18    19   ar
    29    19    14   ar
    30    31    26   ar
    31    10     4   ar
    32     8    12    1
    33    11    13    1
@<TRIPOS>MOLECULE
*****
 31 33 0 0 0
SMALL
GASTEIGER

@<TRIPOS>ATOM
      1 N         142.7109  141.3382  166.4253 N.am    1  UNL1       -0.2475
      2 C         143.0150  139.8785  166.2613 C.2     1  UNL1        0.2560
      3 O         143.3772  139.0488  167.4572 O.2     1  UNL1       -0.2695
      4 C         142.9568  139.2485  164.9012 C.ar    1  UNL1        0.0877
      5 C         141.7644  138.4295  164.5044 C.ar    1  UNL1        0.0107
      6 C         141.7061  137.7995  163.1444 C.ar    1  UNL1        0.0370
      7 C         142.8403  137.9884  162.1811 C.ar    1  UNL1        0.1367
      8 O         142.7821  137.3584  160.8211 O.3     1  UNL1       -0.5054
      9 C         144.0328  138.8074  162.5778 C.ar    1  UNL1        0.0733
     10 C         144.0910  139.4374  163.9379 C.ar    1  UNL1        0.1410
     11 O         145.2834  140.2564  164.3347 O.3     1  UNL1       -0.5053
     12 H         142.0372  136.8468  160.5733 H       1  UNL1        0.2922
     13 H         145.9919  140.3745  163.7330 H       1  UNL1        0.2922
     14 C         141.6241  143.8272  162.8373 C.ar    1  UNL1        0.0537
     15 C         142.9691  143.9874  163.4817 C.ar    1  UNL1        0.0058
     16 C         143.3314  143.1577  164.6777 C.ar    1  UNL1        0.0151
     17 C         142.3486  142.1678  165.2293 C.ar    1  UNL1        0.0546
     18 C         141.0036  142.0076  164.5849 C.ar    1  UNL1        0.0151
     19 C         140.6414  142.8373  163.3890 C.ar    1  UNL1        0.0058
     20 C         141.3451  145.0643  159.0768 C.3     1  UNL1        0.1152
     21 N         141.7074  144.2346  160.2728 N.am    1  UNL1       -0.2726
     22 C         142.5153  142.9826  160.1001 C.3     1  UNL1        0.1152
     23 C         141.2618  144.6569  161.6414 C.2     1  UNL1        0.2491
     24 O         140.4540  145.9089  161.8139 O.2     1  UNL1       -0.2699
     25 C         142.7691  141.9681  167.7853 C.3     1  UNL1        0.1628
     26 C         141.5747  141.9094  168.6908 C.ar    1  UNL1        0.1440
     27 C         141.1153  142.9971  169.6160 C.ar    1  UNL1        0.0384
     28 C         139.8867  142.5126  170.3271 C.ar    1  UNL1        0.0473
     29 C         139.5867  141.1255  169.8414 C.ar    1  UNL1        0.1787
     30 BR        138.4440  140.2626  170.2885 Br      1  UNL1       -0.0078
     31 O         140.6299  140.7526  168.8301 O.2     1  UNL1       -0.4495
@<TRIPOS>BOND
     1    20    21    1
     2    21    22    1
     3    21    23   am
     4    23    24    2
     5    23    14    1
     6    14    15   ar
     7    15    16   ar
     8    16    17   ar
     9    17     1    1
    10     1    25    1
    11    25    26    1
    12    26    27   ar
    13    27    28   ar
    14    28    29   ar
    15    29    30    1
    16    29    31   ar
    17     1     2   am
    18     2     3    2
    19     2     4    1
    20     4     5   ar
    21     5     6   ar
    22     6     7   ar
    23     7     8    1
    24     7     9   ar
    25     9    10   ar
    26    10    11    1
    27    17    18   ar
    28    18    19   ar
    29    19    14   ar
    30    31    26   ar
    31    10     4   ar
    32     8    12    1
    33    11    13    1
@<TRIPOS>MOLECULE
*****
 31 33 0 0 0
SMALL
GASTEIGER

@<TRIPOS>ATOM
      1 N         142.6301  139.8168  166.4651 N.am    1  UNL1       -0.2475
      2 C         143.2852  138.7082  165.6958 C.2     1  UNL1        0.2560
      3 O         143.9245  137.5644  166.4259 O.2     1  UNL1       -0.2695
      4 C         143.3011  138.7435  164.1962 C.ar    1  UNL1        0.0877
      5 C         142.2665  137.9867  163.4173 C.ar    1  UNL1        0.0107
      6 C         142.2823  138.0220  161.9178 C.ar    1  UNL1        0.0370
      7 C         143.3329  138.8140  161.1972 C.ar    1  UNL1        0.1367
      8 O         143.3487  138.8492  159.6977 O.3     1  UNL1       -0.5054
      9 C         144.3675  139.5708  161.9762 C.ar    1  UNL1        0.0733
     10 C         144.3516  139.5355  163.4757 C.ar    1  UNL1        0.1410
     11 O         145.3863  140.2923  164.2547 O.3     1  UNL1       -0.5053
     12 H         142.7024  138.3765  159.2111 H       1  UNL1        0.2922
     13 H         146.0425  140.7870  163.8046 H       1  UNL1        0.2922
     14 C         140.7124  143.2482  164.2748 C.ar    1  UNL1        0.0537
     15 C         139.9781  141.9486  164.4227 C.ar    1  UNL1        0.0058
     16 C         140.6173  140.8048  165.1528 C.ar    1  UNL1        0.0151
     17 C         141.9909  140.9606  165.7350 C.ar    1  UNL1        0.0546
     18 C         142.7252  142.2601  165.5872 C.ar    1  UNL1        0.0151
     19 C         142.0859  143.4039  164.8571 C.ar    1  UNL1        0.0058
     20 C         139.9512  145.9495  161.4688 C.3     1  UNL1        0.1152
     21 N         140.5905  144.8057  162.1989 N.am    1  UNL1       -0.2726
     22 C         141.7471  144.0755  161.5832 C.3     1  UNL1        0.1152
     23 C         140.0731  144.3920  163.5447 C.2     1  UNL1        0.2491
     24 O         138.9165  145.1222  164.1604 O.2     1  UNL1       -0.2699
     25 C         142.6143  139.7815  167.9646 C.3     1  UNL1        0.1628
     26 C         141.4958  140.4378  168.7185 C.ar    1  UNL1        0.1440
     27 C         140.1344  139.8560  168.9596 C.ar    1  UNL1        0.0384
     28 C         139.3396  140.8498  169.7538 C.ar    1  UNL1        0.0473
     29 C         140.2098  142.0458  170.0035 C.ar    1  UNL1        0.1787
     30 BR        139.8165  143.2798  170.7602 Br      1  UNL1       -0.0078
     31 O         141.5425  141.7912  169.3637 O.2     1  UNL1       -0.4495
@<TRIPOS>BOND
     1    20    21    1
     2    21    22    1
     3    21    23   am
     4    23    24    2
     5    23    14    1
     6    14    15   ar
     7    15    16   ar
     8    16    17   ar
     9    17     1    1
    10     1    25    1
    11    25    26    1
    12    26    27   ar
    13    27    28   ar
    14    28    29   ar
    15    29    30    1
    16    29    31   ar
    17     1     2   am
    18     2     3    2
    19     2     4    1
    20     4     5   ar
    21     5     6   ar
    22     6     7   ar
    23     7     8    1
    24     7     9   ar
    25     9    10   ar
    26    10    11    1
    27    17    18   ar
    28    18    19   ar
    29    19    14   ar
    30    31    26   ar
    31    10     4   ar
    32     8    12    1
    33    11    13    1
@<TRIPOS>MOLECULE
*****
 31 33 0 0 0
SMALL
GASTEIGER

@<TRIPOS>ATOM
      1 N         143.2430  139.7779  165.3765 N.am    1  UNL1       -0.2475
      2 C         143.0590  139.2633  166.7734 C.2     1  UNL1        0.2560
      3 O         143.8376  138.0698  167.2416 O.2     1  UNL1       -0.2695
      4 C         142.0964  139.9424  167.7021 C.ar    1  UNL1        0.0877
      5 C         142.6093  140.8428  168.7866 C.ar    1  UNL1        0.0107
      6 C         141.6468  141.5218  169.7153 C.ar    1  UNL1        0.0370
      7 C         140.1714  141.3004  169.5595 C.ar    1  UNL1        0.1367
      8 O         139.2089  141.9794  170.4882 O.3     1  UNL1       -0.5054
      9 C         139.6585  140.4000  168.4750 C.ar    1  UNL1        0.0733
     10 C         140.6211  139.7209  167.5463 C.ar    1  UNL1        0.1410
     11 O         140.1083  138.8205  166.4618 O.3     1  UNL1       -0.5053
     12 H         139.5292  142.5419  171.1657 H       1  UNL1        0.2922
     13 H         139.1867  138.6822  166.3644 H       1  UNL1        0.2922
     14 C         140.9073  143.3586  163.9717 C.ar    1  UNL1        0.0537
     15 C         142.1711  143.5485  164.7571 C.ar    1  UNL1        0.0058
     16 C         142.9496  142.3549  165.2254 C.ar    1  UNL1        0.0151
     17 C         142.4644  140.9715  164.9082 C.ar    1  UNL1        0.0546
     18 C         141.2007  140.7816  164.1229 C.ar    1  UNL1        0.0151
     19 C         140.4221  141.9751  163.6546 C.ar    1  UNL1        0.0058
     20 C         139.6716  146.3797  161.7144 C.3     1  UNL1        0.1152
     21 N         140.4502  145.1862  162.1827 N.am    1  UNL1       -0.2726
     22 C         141.5502  144.6267  161.3300 C.3     1  UNL1        0.1152
     23 C         140.1288  144.5521  163.5035 C.2     1  UNL1        0.2491
     24 O         139.0288  145.1116  164.3560 O.2     1  UNL1       -0.2699
     25 C         144.2055  139.0989  164.4479 C.3     1  UNL1        0.1628
     26 C         143.9976  139.1762  162.9644 C.ar    1  UNL1        0.1440
     27 C         144.4277  140.3019  162.0712 C.ar    1  UNL1        0.0384
     28 C         144.0189  139.9628  160.6684 C.ar    1  UNL1        0.0473
     29 C         143.3362  138.6274  160.6945 C.ar    1  UNL1        0.1787
     30 BR        142.7667  137.9050  159.5097 Br      1  UNL1       -0.0078
     31 O         143.3230  138.1412  162.1135 O.2     1  UNL1       -0.4495
@<TRIPOS>BOND
     1    20    21    1
     2    21    22    1
     3    21    23   am
     4    23    24    2
     5    23    14    1
     6    14    15   ar
     7    15    16   ar
     8    16    17   ar
     9    17     1    1
    10     1    25    1
    11    25    26    1
    12    26    27   ar
    13    27    28   ar
    14    28    29   ar
    15    29    30    1
    16    29    31   ar
    17     1     2   am
    18     2     3    2
    19     2     4    1
    20     4     5   ar
    21     5     6   ar
    22     6     7   ar
    23     7     8    1
    24     7     9   ar
    25     9    10   ar
    26    10    11    1
    27    17    18   ar
    28    18    19   ar
    29    19    14   ar
    30    31    26   ar
    31    10     4   ar
    32     8    12    1
    33    11    13    1
