@<TRIPOS>MOLECULE
*****
 26 28 0 0 0
SMALL
GASTEIGER

@<TRIPOS>ATOM
      1 C         139.8836  140.6456  169.0602 C.ar    1  UNL1        0.1713
      2 N         139.4406  139.6611  168.0189 N.ar    1  UNL1       -0.2211
      3 C         139.5462  140.3254  166.6781 C.ar    1  UNL1        0.0991
      4 C         140.0546  141.7205  166.8908 C.ar    1  UNL1        0.0794
      5 N         140.2631  141.9184  168.3630 N.ar    1  UNL1       -0.3045
      6 C         140.7633  143.1695  169.0223 C.3     1  UNL1        0.1324
      7 C         139.2036  139.7037  165.3567 C.ar    1  UNL1        0.0193
      8 C         138.2361  140.3857  164.4353 C.ar    1  UNL1        0.0038
      9 C         137.8936  139.7640  163.1139 C.ar    1  UNL1        0.0297
     10 C         138.5185  138.4603  162.7139 C.ar    1  UNL1        0.1401
     11 F         138.1759  137.8387  161.3924 F       1  UNL1       -0.2042
     12 C         139.4859  137.7784  163.6352 C.ar    1  UNL1        0.0297
     13 C         139.8285  138.4001  164.9566 C.ar    1  UNL1        0.0038
     14 C         140.3096  142.7389  165.8195 C.ar    1  UNL1        0.0217
     15 C         139.2715  143.7760  165.5083 C.ar    1  UNL1        0.0223
     16 C         139.5266  144.7945  164.4369 C.ar    1  UNL1        0.1004
     17 N         140.8196  144.7758  163.6768 N.ar    1  UNL1       -0.2290
     18 C         141.8576  143.7387  163.9881 C.ar    1  UNL1        0.1342
     19 C         141.6026  142.7203  165.0595 C.ar    1  UNL1        0.0360
     20 N         143.1507  143.7200  163.2281 N.am    1  UNL1       -0.2693
     21 C         143.3158  142.8048  162.0512 C.2     1  UNL1        0.2277
     22 C         144.6088  142.7861  161.2912 C.3     1  UNL1        0.0950
     23 O         142.1877  141.9083  161.6344 O.2     1  UNL1       -0.2747
     24 H         143.8911  144.3085  163.5017 H       1  UNL1        0.1563
     25 C         141.2377  140.5372  171.2749 C.3     1  UNL1        0.0772
     26 S         139.9378  140.4004  170.5390 S.3     1  UNL1       -0.0764
@<TRIPOS>BOND
     1    25    26    1
     2    26     1    1
     3     1     2   ar
     4     2     3   ar
     5     3     7    1
     6     7     8   ar
     7     8     9   ar
     8     9    10   ar
     9    10    11    1
    10    10    12   ar
    11    12    13   ar
    12     3     4   ar
    13     4    14    1
    14    14    15   ar
    15    15    16   ar
    16    16    17   ar
    17    17    18   ar
    18    18    20    1
    19    20    21   am
    20    21    22    1
    21    21    23    2
    22    18    19   ar
    23     4     5   ar
    24     5     6    1
    25     5     1   ar
    26    13     7   ar
    27    19    14   ar
    28    20    24    1
@<TRIPOS>MOLECULE
*****
 26 28 0 0 0
SMALL
GASTEIGER

@<TRIPOS>ATOM
      1 C         140.2133  140.3333  168.4771 C.ar    1  UNL1        0.1713
      2 N         141.5649  140.8232  168.0492 N.ar    1  UNL1       -0.2211
      3 C         141.7280  140.5178  166.5897 C.ar    1  UNL1        0.0991
      4 C         140.4772  139.8391  166.1156 C.ar    1  UNL1        0.0794
      5 N         139.5411  139.7251  167.2820 N.ar    1  UNL1       -0.3045
      6 C         138.1729  139.1107  167.2577 C.3     1  UNL1        0.1324
      7 C         142.9308  140.8354  165.7515 C.ar    1  UNL1        0.0193
      8 C         143.7223  139.7260  165.1247 C.ar    1  UNL1        0.0038
      9 C         144.9250  140.0436  164.2866 C.ar    1  UNL1        0.0297
     10 C         145.3363  141.4706  164.0753 C.ar    1  UNL1        0.1401
     11 F         146.5391  141.7882  163.2371 F       1  UNL1       -0.2042
     12 C         144.5449  142.5799  164.7021 C.ar    1  UNL1        0.0297
     13 C         143.3421  142.2623  165.5402 C.ar    1  UNL1        0.0038
     14 C         140.2095  139.3589  164.7200 C.ar    1  UNL1        0.0217
     15 C         139.9983  137.8971  164.4575 C.ar    1  UNL1        0.0223
     16 C         139.7305  137.4168  163.0619 C.ar    1  UNL1        0.1004
     17 N         139.6740  138.3981  161.9288 N.ar    1  UNL1       -0.2290
     18 C         139.8853  139.8598  162.1914 C.ar    1  UNL1        0.1342
     19 C         140.1530  140.3401  163.5869 C.ar    1  UNL1        0.0360
     20 N         139.8288  140.8411  161.0583 N.am    1  UNL1       -0.2693
     21 C         138.5894  141.6554  160.8324 C.2     1  UNL1        0.2277
     22 C         138.5330  142.6367  159.6994 C.3     1  UNL1        0.0950
     23 O         137.4066  141.4882  161.7397 O.2     1  UNL1       -0.2747
     24 H         140.6051  140.9508  160.4629 H       1  UNL1        0.1563
     25 C         140.5442  140.5736  171.0428 C.3     1  UNL1        0.0772
     26 S         139.6354  140.4338  169.8577 S.3     1  UNL1       -0.0764
@<TRIPOS>BOND
     1    25    26    1
     2    26     1    1
     3     1     2   ar
     4     2     3   ar
     5     3     7    1
     6     7     8   ar
     7     8     9   ar
     8     9    10   ar
     9    10    11    1
    10    10    12   ar
    11    12    13   ar
    12     3     4   ar
    13     4    14    1
    14    14    15   ar
    15    15    16   ar
    16    16    17   ar
    17    17    18   ar
    18    18    20    1
    19    20    21   am
    20    21    22    1
    21    21    23    2
    22    18    19   ar
    23     4     5   ar
    24     5     6    1
    25     5     1   ar
    26    13     7   ar
    27    19    14   ar
    28    20    24    1
@<TRIPOS>MOLECULE
*****
 26 28 0 0 0
SMALL
GASTEIGER

@<TRIPOS>ATOM
      1 C         138.5282  141.7819  158.6750 C.ar    1  UNL1        0.1713
      2 N         138.2901  142.8694  159.6802 N.ar    1  UNL1       -0.2211
      3 C         138.7717  142.3812  161.0143 C.ar    1  UNL1        0.0991
      4 C         139.3074  140.9918  160.8336 C.ar    1  UNL1        0.0794
      5 N         139.1570  140.6214  159.3878 N.ar    1  UNL1       -0.3045
      6 C         139.5639  139.3192  158.7644 C.3     1  UNL1        0.1324
      7 C         138.7256  143.1477  162.3028 C.ar    1  UNL1        0.0193
      8 C         137.6303  142.8846  163.2933 C.ar    1  UNL1        0.0038
      9 C         137.5842  143.6511  164.5818 C.ar    1  UNL1        0.0297
     10 C         138.6334  144.6808  164.8798 C.ar    1  UNL1        0.1401
     11 F         138.5873  145.4474  166.1684 F       1  UNL1       -0.2042
     12 C         139.7287  144.9440  163.8894 C.ar    1  UNL1        0.0297
     13 C         139.7748  144.1774  162.6009 C.ar    1  UNL1        0.0038
     14 C         139.8912  140.1250  161.9096 C.ar    1  UNL1        0.0217
     15 C         141.3780  139.9543  162.0109 C.ar    1  UNL1        0.0223
     16 C         141.9618  139.0876  163.0870 C.ar    1  UNL1        0.1004
     17 N         141.0587  138.3915  164.0618 N.ar    1  UNL1       -0.2290
     18 C         139.5720  138.5622  163.9604 C.ar    1  UNL1        0.1342
     19 C         138.9882  139.4290  162.8843 C.ar    1  UNL1        0.0360
     20 N         138.6689  137.8661  164.9351 N.am    1  UNL1       -0.2693
     21 C         138.2404  138.5649  166.1913 C.2     1  UNL1        0.2277
     22 C         137.3373  137.8689  167.1660 C.3     1  UNL1        0.0950
     23 O         138.7150  139.9598  166.4728 O.2     1  UNL1       -0.2747
     24 H         138.3574  136.9507  164.7503 H       1  UNL1        0.1563
     25 C         136.8975  141.2820  156.7152 C.3     1  UNL1        0.0772
     26 S         138.1960  141.8438  157.2136 S.3     1  UNL1       -0.0764
@<TRIPOS>BOND
     1    25    26    1
     2    26     1    1
     3     1     2   ar
     4     2     3   ar
     5     3     7    1
     6     7     8   ar
     7     8     9   ar
     8     9    10   ar
     9    10    11    1
    10    10    12   ar
    11    12    13   ar
    12     3     4   ar
    13     4    14    1
    14    14    15   ar
    15    15    16   ar
    16    16    17   ar
    17    17    18   ar
    18    18    20    1
    19    20    21   am
    20    21    22    1
    21    21    23    2
    22    18    19   ar
    23     4     5   ar
    24     5     6    1
    25     5     1   ar
    26    13     7   ar
    27    19    14   ar
    28    20    24    1
@<TRIPOS>MOLECULE
*****
 26 28 0 0 0
SMALL
GASTEIGER

@<TRIPOS>ATOM
      1 C         140.9734  140.4600  168.8609 C.ar    1  UNL1        0.1713
      2 N         139.9823  139.8615  167.9072 N.ar    1  UNL1       -0.2211
      3 C         140.2947  140.3733  166.5322 C.ar    1  UNL1        0.0991
      4 C         141.4789  141.2882  166.6361 C.ar    1  UNL1        0.0794
      5 N         141.8983  141.3418  168.0753 N.ar    1  UNL1       -0.3045
      6 C         143.0419  142.1375  168.6313 C.3     1  UNL1        0.1324
      7 C         139.5532  140.0304  165.2742 C.ar    1  UNL1        0.0193
      8 C         138.5248  140.9761  164.7284 C.ar    1  UNL1        0.0038
      9 C         137.7832  140.6332  163.4704 C.ar    1  UNL1        0.0297
     10 C         138.0701  139.3446  162.7583 C.ar    1  UNL1        0.1401
     11 F         137.3285  139.0017  161.5002 F       1  UNL1       -0.2042
     12 C         139.0985  138.3989  163.3041 C.ar    1  UNL1        0.0297
     13 C         139.8401  138.7418  164.5620 C.ar    1  UNL1        0.0038
     14 C         142.1294  142.0208  165.5004 C.ar    1  UNL1        0.0217
     15 C         143.4175  141.5152  164.9215 C.ar    1  UNL1        0.0223
     16 C         144.0681  142.2478  163.7857 C.ar    1  UNL1        0.1004
     17 N         143.4305  143.4861  163.2287 N.ar    1  UNL1       -0.2290
     18 C         142.1424  143.9918  163.8076 C.ar    1  UNL1        0.1342
     19 C         141.4919  143.2591  164.9434 C.ar    1  UNL1        0.0360
     20 N         141.5048  145.2300  163.2507 N.am    1  UNL1       -0.2693
     21 C         140.3463  145.1166  162.3047 C.2     1  UNL1        0.2277
     22 C         139.7087  146.3549  161.7478 C.3     1  UNL1        0.0950
     23 O         139.8255  143.7648  161.9155 O.2     1  UNL1       -0.2747
     24 H         141.8467  146.1172  163.5062 H       1  UNL1        0.1563
     25 C         140.7988  141.3535  171.2942 C.3     1  UNL1        0.0772
     26 S         141.0297  140.2191  170.3403 S.3     1  UNL1       -0.0764
@<TRIPOS>BOND
     1    25    26    1
     2    26     1    1
     3     1     2   ar
     4     2     3   ar
     5     3     7    1
     6     7     8   ar
     7     8     9   ar
     8     9    10   ar
     9    10    11    1
    10    10    12   ar
    11    12    13   ar
    12     3     4   ar
    13     4    14    1
    14    14    15   ar
    15    15    16   ar
    16    16    17   ar
    17    17    18   ar
    18    18    20    1
    19    20    21   am
    20    21    22    1
    21    21    23    2
    22    18    19   ar
    23     4     5   ar
    24     5     6    1
    25     5     1   ar
    26    13     7   ar
    27    19    14   ar
    28    20    24    1
@<TRIPOS>MOLECULE
*****
 26 28 0 0 0
SMALL
GASTEIGER

@<TRIPOS>ATOM
      1 C         138.5049  141.7585  158.7466 C.ar    1  UNL1        0.1713
      2 N         138.3300  142.8826  159.7242 N.ar    1  UNL1       -0.2211
      3 C         138.6520  142.3607  161.0931 C.ar    1  UNL1        0.0991
      4 C         139.0258  140.9140  160.9616 C.ar    1  UNL1        0.0794
      5 N         138.9349  140.5418  159.5114 N.ar    1  UNL1       -0.3045
      6 C         139.2234  139.1902  158.9283 C.3     1  UNL1        0.1324
      7 C         138.6078  143.1475  162.3695 C.ar    1  UNL1        0.0193
      8 C         139.5473  144.2988  162.5738 C.ar    1  UNL1        0.0038
      9 C         139.5031  145.0855  163.8501 C.ar    1  UNL1        0.0297
     10 C         138.5194  144.7208  164.9223 C.ar    1  UNL1        0.1401
     11 F         138.4753  145.5076  166.1987 F       1  UNL1       -0.2042
     12 C         137.5800  143.5695  164.7180 C.ar    1  UNL1        0.0297
     13 C         137.6242  142.7828  163.4417 C.ar    1  UNL1        0.0038
     14 C         139.4211  140.0000  162.0833 C.ar    1  UNL1        0.0217
     15 C         138.5027  138.8924  162.5073 C.ar    1  UNL1        0.0223
     16 C         138.8980  137.9784  163.6290 C.ar    1  UNL1        0.1004
     17 N         140.2117  138.1719  164.3268 N.ar    1  UNL1       -0.2290
     18 C         141.1300  139.2795  163.9028 C.ar    1  UNL1        0.1342
     19 C         140.7347  140.1935  162.7811 C.ar    1  UNL1        0.0360
     20 N         142.4437  139.4730  164.6005 N.am    1  UNL1       -0.2693
     21 C         143.7164  139.0355  163.9380 C.2     1  UNL1        0.2277
     22 C         145.0301  139.2291  164.6357 C.3     1  UNL1        0.0950
     23 O         143.6753  138.4044  162.5778 O.2     1  UNL1       -0.2747
     24 H         142.4706  139.8872  165.4932 H       1  UNL1        0.1563
     25 C         137.1627  141.0748  156.6297 C.3     1  UNL1        0.0772
     26 S         138.2879  141.8371  157.2645 S.3     1  UNL1       -0.0764
@<TRIPOS>BOND
     1    25    26    1
     2    26     1    1
     3     1     2   ar
     4     2     3   ar
     5     3     7    1
     6     7     8   ar
     7     8     9   ar
     8     9    10   ar
     9    10    11    1
    10    10    12   ar
    11    12    13   ar
    12     3     4   ar
    13     4    14    1
    14    14    15   ar
    15    15    16   ar
    16    16    17   ar
    17    17    18   ar
    18    18    20    1
    19    20    21   am
    20    21    22    1
    21    21    23    2
    22    18    19   ar
    23     4     5   ar
    24     5     6    1
    25     5     1   ar
    26    13     7   ar
    27    19    14   ar
    28    20    24    1
@<TRIPOS>MOLECULE
*****
 26 28 0 0 0
SMALL
GASTEIGER

@<TRIPOS>ATOM
      1 C         140.7843  140.8816  167.5970 C.ar    1  UNL1        0.1713
      2 N         140.1641  142.0684  166.9211 N.ar    1  UNL1       -0.2211
      3 C         140.9144  142.3206  165.6469 C.ar    1  UNL1        0.0991
      4 C         141.9983  141.2897  165.5354 C.ar    1  UNL1        0.0794
      5 N         141.9179  140.4004  166.7406 N.ar    1  UNL1       -0.3045
      6 C         142.8138  139.2345  167.0373 C.3     1  UNL1        0.1324
      7 C         140.6305  143.4122  164.6579 C.ar    1  UNL1        0.0193
      8 C         141.7376  144.3133  164.1972 C.ar    1  UNL1        0.0038
      9 C         141.4537  145.4048  163.2083 C.ar    1  UNL1        0.0297
     10 C         140.0628  145.5951  162.6800 C.ar    1  UNL1        0.1401
     11 F         139.7790  146.6866  161.6910 F       1  UNL1       -0.2042
     12 C         138.9557  144.6940  163.1407 C.ar    1  UNL1        0.0297
     13 C         139.2396  143.6025  164.1297 C.ar    1  UNL1        0.0038
     14 C         142.9887  141.1693  164.4153 C.ar    1  UNL1        0.0217
     15 C         144.4171  141.5736  164.6306 C.ar    1  UNL1        0.0223
     16 C         145.4075  141.4532  163.5105 C.ar    1  UNL1        0.1004
     17 N         144.9696  140.9286  162.1752 N.ar    1  UNL1       -0.2290
     18 C         143.5412  140.5243  161.9600 C.ar    1  UNL1        0.1342
     19 C         142.5508  140.6447  163.0800 C.ar    1  UNL1        0.0360
     20 N         143.1033  139.9997  160.6247 N.am    1  UNL1       -0.2693
     21 C         143.2964  138.5508  160.2881 C.2     1  UNL1        0.2277
     22 C         142.8584  138.0261  158.9529 C.3     1  UNL1        0.0950
     23 O         143.9275  137.6265  161.2869 O.2     1  UNL1       -0.2747
     24 H         142.6890  140.6063  159.9692 H       1  UNL1        0.1563
     25 C         139.6863  141.1402  169.9375 C.3     1  UNL1        0.0772
     26 S         140.3476  140.2814  168.9005 S.3     1  UNL1       -0.0764
@<TRIPOS>BOND
     1    25    26    1
     2    26     1    1
     3     1     2   ar
     4     2     3   ar
     5     3     7    1
     6     7     8   ar
     7     8     9   ar
     8     9    10   ar
     9    10    11    1
    10    10    12   ar
    11    12    13   ar
    12     3     4   ar
    13     4    14    1
    14    14    15   ar
    15    15    16   ar
    16    16    17   ar
    17    17    18   ar
    18    18    20    1
    19    20    21   am
    20    21    22    1
    21    21    23    2
    22    18    19   ar
    23     4     5   ar
    24     5     6    1
    25     5     1   ar
    26    13     7   ar
    27    19    14   ar
    28    20    24    1
@<TRIPOS>MOLECULE
*****
 26 28 0 0 0
SMALL
GASTEIGER

@<TRIPOS>ATOM
      1 C         142.1177  139.5008  168.4469 C.ar    1  UNL1        0.1713
      2 N         142.9796  139.0957  167.2880 N.ar    1  UNL1       -0.2211
      3 C         142.3333  139.5991  166.0314 C.ar    1  UNL1        0.0991
      4 C         141.0720  140.3153  166.4137 C.ar    1  UNL1        0.0794
      5 N         140.9387  140.2545  167.9065 N.ar    1  UNL1       -0.3045
      6 C         139.8224  140.8440  168.7167 C.3     1  UNL1        0.1324
      7 C         142.8565  139.4180  164.6373 C.ar    1  UNL1        0.0193
      8 C         143.9170  140.3378  164.1088 C.ar    1  UNL1        0.0038
      9 C         144.4402  140.1568  162.7148 C.ar    1  UNL1        0.0297
     10 C         143.9029  139.0559  161.8491 C.ar    1  UNL1        0.1401
     11 F         144.4261  138.8748  160.4550 F       1  UNL1       -0.2042
     12 C         142.8424  138.1360  162.3776 C.ar    1  UNL1        0.0297
     13 C         142.3192  138.3171  163.7716 C.ar    1  UNL1        0.0038
     14 C         140.1124  140.9762  165.4690 C.ar    1  UNL1        0.0217
     15 C         138.9291  140.2155  164.9480 C.ar    1  UNL1        0.0223
     16 C         137.9696  140.8764  164.0033 C.ar    1  UNL1        0.1004
     17 N         138.1931  142.2979  163.5797 N.ar    1  UNL1       -0.2290
     18 C         139.3763  143.0585  164.1007 C.ar    1  UNL1        0.1342
     19 C         140.3359  142.3976  165.0454 C.ar    1  UNL1        0.0360
     20 N         139.5999  144.4799  163.6771 N.am    1  UNL1       -0.2693
     21 C         139.4619  144.8629  162.2334 C.2     1  UNL1        0.2277
     22 C         139.6855  146.2844  161.8099 C.3     1  UNL1        0.0950
     23 O         139.1002  143.8243  161.2133 O.2     1  UNL1       -0.2747
     24 H         139.8373  145.1616  164.3467 H       1  UNL1        0.1563
     25 C         142.9481  140.2714  170.7849 C.3     1  UNL1        0.0772
     26 S         142.3874  139.2042  169.8923 S.3     1  UNL1       -0.0764
@<TRIPOS>BOND
     1    25    26    1
     2    26     1    1
     3     1     2   ar
     4     2     3   ar
     5     3     7    1
     6     7     8   ar
     7     8     9   ar
     8     9    10   ar
     9    10    11    1
    10    10    12   ar
    11    12    13   ar
    12     3     4   ar
    13     4    14    1
    14    14    15   ar
    15    15    16   ar
    16    16    17   ar
    17    17    18   ar
    18    18    20    1
    19    20    21   am
    20    21    22    1
    21    21    23    2
    22    18    19   ar
    23     4     5   ar
    24     5     6    1
    25     5     1   ar
    26    13     7   ar
    27    19    14   ar
    28    20    24    1
@<TRIPOS>MOLECULE
*****
 26 28 0 0 0
SMALL
GASTEIGER

@<TRIPOS>ATOM
      1 C         139.6412  143.9057  162.9221 C.ar    1  UNL1        0.1713
      2 N         141.0059  143.2993  162.7805 N.ar    1  UNL1       -0.2211
      3 C         141.1312  142.1984  163.7915 C.ar    1  UNL1        0.0991
      4 C         139.8439  142.1243  164.5580 C.ar    1  UNL1        0.0794
      5 N         138.9231  143.1794  164.0207 N.ar    1  UNL1       -0.3045
      6 C         137.5289  143.4593  164.4982 C.3     1  UNL1        0.1324
      7 C         142.3328  141.3249  163.9995 C.ar    1  UNL1        0.0193
      8 C         143.6847  141.9438  164.1977 C.ar    1  UNL1        0.0038
      9 C         144.8862  141.0703  164.4057 C.ar    1  UNL1        0.0297
     10 C         144.7358  139.5779  164.4155 C.ar    1  UNL1        0.1401
     11 F         145.9374  138.7044  164.6235 F       1  UNL1       -0.2042
     12 C         143.3839  138.9590  164.2174 C.ar    1  UNL1        0.0297
     13 C         142.1824  139.8325  164.0094 C.ar    1  UNL1        0.0038
     14 C         139.5322  141.1637  165.6672 C.ar    1  UNL1        0.0217
     15 C         138.4606  140.1301  165.4850 C.ar    1  UNL1        0.0223
     16 C         138.1489  139.1695  166.5941 C.ar    1  UNL1        0.1004
     17 N         138.9087  139.2425  167.8854 N.ar    1  UNL1       -0.2290
     18 C         139.9804  140.2762  168.0675 C.ar    1  UNL1        0.1342
     19 C         140.2921  141.2367  166.9583 C.ar    1  UNL1        0.0360
     20 N         140.7403  140.3493  169.3587 N.am    1  UNL1       -0.2693
     21 C         142.1445  139.8272  169.4331 C.2     1  UNL1        0.2277
     22 C         142.9044  139.9003  170.7243 C.3     1  UNL1        0.0950
     23 O         142.7888  139.2319  168.2162 O.2     1  UNL1       -0.2747
     24 H         140.3174  140.7399  170.1573 H       1  UNL1        0.1563
     25 C         139.9297  146.2571  161.8554 C.3     1  UNL1        0.0772
     26 S         139.0913  145.0392  162.1081 S.3     1  UNL1       -0.0764
@<TRIPOS>BOND
     1    25    26    1
     2    26     1    1
     3     1     2   ar
     4     2     3   ar
     5     3     7    1
     6     7     8   ar
     7     8     9   ar
     8     9    10   ar
     9    10    11    1
    10    10    12   ar
    11    12    13   ar
    12     3     4   ar
    13     4    14    1
    14    14    15   ar
    15    15    16   ar
    16    16    17   ar
    17    17    18   ar
    18    18    20    1
    19    20    21   am
    20    21    22    1
    21    21    23    2
    22    18    19   ar
    23     4     5   ar
    24     5     6    1
    25     5     1   ar
    26    13     7   ar
    27    19    14   ar
    28    20    24    1
@<TRIPOS>MOLECULE
*****
 26 28 0 0 0
SMALL
GASTEIGER

@<TRIPOS>ATOM
      1 C         139.6678  140.6426  168.3517 C.ar    1  UNL1        0.1713
      2 N         140.6306  141.7174  167.9421 N.ar    1  UNL1       -0.2211
      3 C         140.6665  141.7611  166.4432 C.ar    1  UNL1        0.0991
      4 C         139.7259  140.7132  165.9263 C.ar    1  UNL1        0.0794
      5 N         139.1087  140.0219  167.1058 N.ar    1  UNL1       -0.3045
      6 C         138.1080  138.9059  167.0493 C.3     1  UNL1        0.1324
      7 C         141.4972  142.6896  165.6078 C.ar    1  UNL1        0.0193
      8 C         142.9873  142.5248  165.5596 C.ar    1  UNL1        0.0038
      9 C         143.8179  143.4533  164.7242 C.ar    1  UNL1        0.0297
     10 C         143.1584  144.5467  163.9371 C.ar    1  UNL1        0.1401
     11 F         143.9891  145.4753  163.1017 F       1  UNL1       -0.2042
     12 C         141.6683  144.7115  163.9853 C.ar    1  UNL1        0.0297
     13 C         140.8377  143.7830  164.8206 C.ar    1  UNL1        0.0038
     14 C         139.4507  140.4098  164.4833 C.ar    1  UNL1        0.0217
     15 C         138.3279  141.1048  163.7717 C.ar    1  UNL1        0.0223
     16 C         138.0527  140.8014  162.3287 C.ar    1  UNL1        0.1004
     17 N         138.9004  139.8031  161.5973 N.ar    1  UNL1       -0.2290
     18 C         140.0231  139.1082  162.3089 C.ar    1  UNL1        0.1342
     19 C         140.2983  139.4116  163.7519 C.ar    1  UNL1        0.0360
     20 N         140.8708  138.1099  161.5775 N.am    1  UNL1       -0.2693
     21 C         142.1750  138.5350  160.9705 C.2     1  UNL1        0.2277
     22 C         143.0226  137.5367  160.2392 C.3     1  UNL1        0.0950
     23 O         142.6314  139.9585  161.0950 O.2     1  UNL1       -0.2747
     24 H         140.5712  137.1757  161.4959 H       1  UNL1        0.1563
     25 C         140.4038  140.1680  170.7977 C.3     1  UNL1        0.0772
     26 S         139.3245  140.2562  169.7598 S.3     1  UNL1       -0.0764
@<TRIPOS>BOND
     1    25    26    1
     2    26     1    1
     3     1     2   ar
     4     2     3   ar
     5     3     7    1
     6     7     8   ar
     7     8     9   ar
     8     9    10   ar
     9    10    11    1
    10    10    12   ar
    11    12    13   ar
    12     3     4   ar
    13     4    14    1
    14    14    15   ar
    15    15    16   ar
    16    16    17   ar
    17    17    18   ar
    18    18    20    1
    19    20    21   am
    20    21    22    1
    21    21    23    2
    22    18    19   ar
    23     4     5   ar
    24     5     6    1
    25     5     1   ar
    26    13     7   ar
    27    19    14   ar
    28    20    24    1
