@<TRIPOS>MOLECULE
*****
 38 43 0 0 0
SMALL
GASTEIGER

@<TRIPOS>ATOM
      1 C         143.7118  140.8593  162.3486 C.ar    1  UNL1        0.0246
      2 C         144.9019  141.2895  163.1539 C.ar    1  UNL1        0.0990
      3 N         144.7387  141.6455  164.6018 N.ar    1  UNL1       -0.2423
      4 C         143.3854  141.5712  165.2445 C.ar    1  UNL1        0.0984
      5 C         142.9205  141.8589  166.6414 C.ar    1  UNL1        0.0348
      6 C         143.6516  142.3180  167.8680 C.ar    1  UNL1        0.0027
      7 C         142.9053  142.5248  169.1526 C.ar    1  UNL1       -0.0019
      8 C         141.4278  142.2723  169.2106 C.ar    1  UNL1        0.0031
      9 C         140.6967  141.8131  167.9839 C.ar    1  UNL1        0.0152
     10 C         141.4431  141.6064  166.6994 C.ar    1  UNL1        0.0613
     11 N         140.9949  141.1628  165.3384 N.ar    1  UNL1       -0.3240
     12 C         142.1953  141.1410  164.4393 C.ar    1  UNL1        0.0780
     13 C         142.3585  140.7850  162.9913 C.ar    1  UNL1        0.0204
     14 C         143.9970  142.9687  159.8750 C.3     1  UNL1        0.0557
     15 C         144.0060  141.4729  159.7636 C.ar    1  UNL1        0.1006
     16 N         144.1477  140.6840  158.4957 N.ar    1  UNL1       -0.0817
     17 O         144.1043  139.2268  158.8491 O.2     1  UNL1       -0.3581
     18 C         143.9357  139.1152  160.3354 C.ar    1  UNL1        0.1544
     19 C         143.8439  137.8394  161.1189 C.3     1  UNL1        0.0754
     20 C         143.8749  140.5033  160.9006 C.ar    1  UNL1        0.0512
     21 C         140.6814  142.4791  170.4952 C.3     1  UNL1        0.1072
     22 C         140.2731  143.8480  170.0378 C.3     1  UNL1        0.0339
     23 C         141.0898  141.1102  170.9527 C.3     1  UNL1        0.0339
     24 O         139.9351  142.6858  171.7799 O.3     1  UNL1       -0.3827
     25 H         139.5253  143.5649  171.7778 H       1  UNL1        0.2107
     26 C         139.5924  140.8039  164.9455 C.3     1  UNL1        0.1080
     27 C         138.9476  139.5722  165.5087 C.ar    1  UNL1       -0.0018
     28 C         138.0753  139.6716  166.7249 C.ar    1  UNL1       -0.0025
     29 C         137.4304  138.4398  167.2880 C.ar    1  UNL1       -0.0003
     30 C         137.6580  137.1087  166.6350 C.ar    1  UNL1       -0.0000
     31 C         138.5304  137.0094  165.4188 C.ar    1  UNL1       -0.0003
     32 C         139.1752  138.2411  164.8557 C.ar    1  UNL1       -0.0025
     33 C         138.8348  141.6766  163.9894 C.3     1  UNL1        0.0300
     34 C         138.5332  141.1864  162.6042 C.3     1  UNL1        0.0344
     35 C         137.7756  142.0592  161.6481 C.3     1  UNL1        0.1422
     36 O         137.3194  143.4222  162.0771 O.3     1  UNL1       -0.3538
     37 C         137.6209  143.9124  163.4623 C.3     1  UNL1        0.1422
     38 C         138.3786  143.0396  164.4184 C.3     1  UNL1        0.0344
@<TRIPOS>BOND
     1    14    15    1
     2    15    16   ar
     3    16    17   ar
     4    17    18   ar
     5    18    19    1
     6    18    20   ar
     7    20     1    1
     8     1     2   ar
     9     2     3   ar
    10     3     4   ar
    11     4     5   ar
    12     5     6   ar
    13     6     7   ar
    14     7     8   ar
    15     8    21    1
    16    21    22    1
    17    21    23    1
    18    21    24    1
    19     8     9   ar
    20     9    10   ar
    21    10    11   ar
    22    11    26    1
    23    26    27    1
    24    27    28   ar
    25    28    29   ar
    26    29    30   ar
    27    30    31   ar
    28    31    32   ar
    29    26    33    1
    30    33    34    1
    31    34    35    1
    32    35    36    1
    33    36    37    1
    34    37    38    1
    35    11    12   ar
    36    12    13   ar
    37    20    15   ar
    38    13     1   ar
    39    12     4   ar
    40    10     5   ar
    41    32    27   ar
    42    38    33    1
    43    24    25    1
@<TRIPOS>MOLECULE
*****
 38 43 0 0 0
SMALL
GASTEIGER

@<TRIPOS>ATOM
      1 C         143.7625  140.8789  162.4602 C.ar    1  UNL1        0.0246
      2 C         144.9811  141.2364  163.2583 C.ar    1  UNL1        0.0990
      3 N         144.8547  141.5533  164.7189 N.ar    1  UNL1       -0.2423
      4 C         143.5096  141.5125  165.3815 C.ar    1  UNL1        0.0984
      5 C         143.0782  141.7747  166.7941 C.ar    1  UNL1        0.0348
      6 C         143.8460  142.1661  168.0217 C.ar    1  UNL1        0.0027
      7 C         143.1285  142.3621  169.3243 C.ar    1  UNL1       -0.0019
      8 C         141.6432  142.1665  169.3992 C.ar    1  UNL1        0.0031
      9 C         140.8754  141.7750  168.1715 C.ar    1  UNL1        0.0152
     10 C         141.5929  141.5791  166.8690 C.ar    1  UNL1        0.0613
     11 N         141.1064  141.1961  165.5027 N.ar    1  UNL1       -0.3240
     12 C         142.2909  141.1550  164.5835 C.ar    1  UNL1        0.0780
     13 C         142.4174  140.8382  163.1228 C.ar    1  UNL1        0.0204
     14 C         143.9252  137.8936  161.1519 C.3     1  UNL1        0.0557
     15 C         143.9636  139.1899  160.3981 C.ar    1  UNL1        0.1006
     16 N         144.0836  139.3416  158.9107 N.ar    1  UNL1       -0.0817
     17 O         144.0830  140.8075  158.5926 O.2     1  UNL1       -0.3581
     18 C         143.9626  141.5618  159.8836 C.ar    1  UNL1        0.1544
     19 C         143.9230  143.0538  160.0325 C.3     1  UNL1        0.0754
     20 C         143.8888  140.5620  160.9994 C.ar    1  UNL1        0.0512
     21 C         140.9256  142.3624  170.7019 C.3     1  UNL1        0.1072
     22 C         140.2730  143.5981  170.1566 C.3     1  UNL1        0.0339
     23 C         141.5782  141.1268  171.2471 C.3     1  UNL1        0.0339
     24 O         140.2081  142.5583  172.0045 O.3     1  UNL1       -0.3827
     25 H         139.6555  143.3539  171.9528 H       1  UNL1        0.2107
     26 C         139.6848  140.9053  165.1225 C.3     1  UNL1        0.1080
     27 C         138.9074  141.8985  164.3107 C.ar    1  UNL1       -0.0018
     28 C         138.5379  141.5822  162.8917 C.ar    1  UNL1       -0.0025
     29 C         137.7604  142.5755  162.0799 C.ar    1  UNL1       -0.0003
     30 C         137.3524  143.8851  162.6871 C.ar    1  UNL1       -0.0000
     31 C         137.7219  144.2014  164.1060 C.ar    1  UNL1       -0.0003
     32 C         138.4993  143.2081  164.9178 C.ar    1  UNL1       -0.0025
     33 C         139.0406  139.6213  165.5542 C.3     1  UNL1        0.0300
     34 C         138.1216  139.6047  166.7396 C.3     1  UNL1        0.0344
     35 C         137.4775  138.3206  167.1712 C.3     1  UNL1        0.1422
     36 O         137.7523  137.0532  166.4174 O.3     1  UNL1       -0.3538
     37 C         138.6712  137.0699  165.2320 C.3     1  UNL1        0.1422
     38 C         139.3154  138.3539  164.8004 C.3     1  UNL1        0.0344
@<TRIPOS>BOND
     1    14    15    1
     2    15    16   ar
     3    16    17   ar
     4    17    18   ar
     5    18    19    1
     6    18    20   ar
     7    20     1    1
     8     1     2   ar
     9     2     3   ar
    10     3     4   ar
    11     4     5   ar
    12     5     6   ar
    13     6     7   ar
    14     7     8   ar
    15     8    21    1
    16    21    22    1
    17    21    23    1
    18    21    24    1
    19     8     9   ar
    20     9    10   ar
    21    10    11   ar
    22    11    26    1
    23    26    27    1
    24    27    28   ar
    25    28    29   ar
    26    29    30   ar
    27    30    31   ar
    28    31    32   ar
    29    26    33    1
    30    33    34    1
    31    34    35    1
    32    35    36    1
    33    36    37    1
    34    37    38    1
    35    11    12   ar
    36    12    13   ar
    37    20    15   ar
    38    13     1   ar
    39    12     4   ar
    40    10     5   ar
    41    32    27   ar
    42    38    33    1
    43    24    25    1
@<TRIPOS>MOLECULE
*****
 38 43 0 0 0
SMALL
GASTEIGER

@<TRIPOS>ATOM
      1 C         141.9165  141.9019  168.3784 C.ar    1  UNL1        0.0246
      2 C         143.3510  142.3273  168.2720 C.ar    1  UNL1        0.0990
      3 N         144.0246  142.3654  166.9324 N.ar    1  UNL1       -0.2423
      4 C         143.2638  141.9780  165.6991 C.ar    1  UNL1        0.0984
      5 C         143.6593  141.9177  164.2533 C.ar    1  UNL1        0.0348
      6 C         144.9492  142.2244  163.5520 C.ar    1  UNL1        0.0027
      7 C         145.0492  142.0683  162.0635 C.ar    1  UNL1       -0.0019
      8 C         143.8591  141.6055  161.2764 C.ar    1  UNL1        0.0031
      9 C         142.5691  141.2989  161.9777 C.ar    1  UNL1        0.0152
     10 C         142.4693  141.4550  163.4662 C.ar    1  UNL1        0.0613
     11 N         141.3383  141.2293  164.4254 N.ar    1  UNL1       -0.3240
     12 C         141.8294  141.5526  165.8054 C.ar    1  UNL1        0.0780
     13 C         141.1558  141.5145  167.1450 C.ar    1  UNL1        0.0204
     14 C         140.3616  144.3855  169.8149 C.3     1  UNL1        0.0557
     15 C         140.5281  143.0054  170.3783 C.ar    1  UNL1        0.1006
     16 N         140.0092  142.5245  171.7010 N.ar    1  UNL1       -0.0817
     17 O         140.4031  141.0857  171.8582 O.2     1  UNL1       -0.3581
     18 C         141.1655  140.6774  170.6327 C.ar    1  UNL1        0.1544
     19 C         141.7484  139.3208  170.3682 C.3     1  UNL1        0.0754
     20 C         141.2428  141.8638  169.7181 C.ar    1  UNL1        0.0512
     21 C         143.9590  141.4494  159.7878 C.3     1  UNL1        0.1072
     22 C         144.1952  142.9242  159.6489 C.3     1  UNL1        0.0339
     23 C         143.7229  139.9747  159.9267 C.3     1  UNL1        0.0339
     24 O         144.0589  141.2933  158.2993 O.3     1  UNL1       -0.3827
     25 H         144.2244  142.1587  157.8938 H       1  UNL1        0.2107
     26 C         139.9585  140.7623  164.0675 C.3     1  UNL1        0.1080
     27 C         139.3531  139.5923  164.7847 C.ar    1  UNL1       -0.0018
     28 C         139.6923  138.1944  164.3592 C.ar    1  UNL1       -0.0025
     29 C         139.0868  137.0243  165.0765 C.ar    1  UNL1       -0.0003
     30 C         138.1421  137.2522  166.2192 C.ar    1  UNL1       -0.0000
     31 C         137.8029  138.6500  166.6446 C.ar    1  UNL1       -0.0003
     32 C         138.4084  139.8200  165.9274 C.ar    1  UNL1       -0.0025
     33 C         139.1841  141.4654  162.9923 C.3     1  UNL1        0.0300
     34 C         138.7152  142.8743  163.2050 C.3     1  UNL1        0.0344
     35 C         137.9408  143.5774  162.1299 C.3     1  UNL1        0.1422
     36 O         137.6353  142.8716  160.8421 O.3     1  UNL1       -0.3538
     37 C         138.1042  141.4628  160.6294 C.3     1  UNL1        0.1422
     38 C         138.8786  140.7597  161.7045 C.3     1  UNL1        0.0344
@<TRIPOS>BOND
     1    14    15    1
     2    15    16   ar
     3    16    17   ar
     4    17    18   ar
     5    18    19    1
     6    18    20   ar
     7    20     1    1
     8     1     2   ar
     9     2     3   ar
    10     3     4   ar
    11     4     5   ar
    12     5     6   ar
    13     6     7   ar
    14     7     8   ar
    15     8    21    1
    16    21    22    1
    17    21    23    1
    18    21    24    1
    19     8     9   ar
    20     9    10   ar
    21    10    11   ar
    22    11    26    1
    23    26    27    1
    24    27    28   ar
    25    28    29   ar
    26    29    30   ar
    27    30    31   ar
    28    31    32   ar
    29    26    33    1
    30    33    34    1
    31    34    35    1
    32    35    36    1
    33    36    37    1
    34    37    38    1
    35    11    12   ar
    36    12    13   ar
    37    20    15   ar
    38    13     1   ar
    39    12     4   ar
    40    10     5   ar
    41    32    27   ar
    42    38    33    1
    43    24    25    1
@<TRIPOS>MOLECULE
*****
 38 43 0 0 0
SMALL
GASTEIGER

@<TRIPOS>ATOM
      1 C         139.9686  140.5528  167.4149 C.ar    1  UNL1        0.0246
      2 C         139.0533  139.3741  167.2637 C.ar    1  UNL1        0.0990
      3 N         138.6571  138.9028  165.8959 N.ar    1  UNL1       -0.2423
      4 C         139.1763  139.6103  164.6793 C.ar    1  UNL1        0.0984
      5 C         138.9609  139.3757  163.2135 C.ar    1  UNL1        0.0348
      6 C         138.1537  138.3544  162.4685 C.ar    1  UNL1        0.0027
      7 C         138.1286  138.3667  160.9687 C.ar    1  UNL1       -0.0019
      8 C         138.9108  139.4005  160.2141 C.ar    1  UNL1        0.0031
      9 C         139.7181  140.4218  160.9591 C.ar    1  UNL1        0.0152
     10 C         139.7431  140.4094  162.4588 C.ar    1  UNL1        0.0613
     11 N         140.4419  141.2829  163.4582 N.ar    1  UNL1       -0.3240
     12 C         140.0915  140.7890  164.8306 C.ar    1  UNL1        0.0780
     13 C         140.4877  141.2602  166.1984 C.ar    1  UNL1        0.0204
     14 C         138.2260  140.1861  170.1497 C.3     1  UNL1        0.0557
     15 C         139.5638  140.8556  170.0398 C.ar    1  UNL1        0.1006
     16 N         140.3355  141.4740  171.1676 N.ar    1  UNL1       -0.0817
     17 O         141.6134  142.0248  170.6077 O.2     1  UNL1       -0.3581
     18 C         141.6315  141.7468  169.1338 C.ar    1  UNL1        0.1544
     19 C         142.7244  142.1250  168.1786 C.3     1  UNL1        0.0754
     20 C         140.3647  141.0241  168.7828 C.ar    1  UNL1        0.0512
     21 C         138.8857  139.4129  158.7143 C.3     1  UNL1        0.1072
     22 C         137.8800  140.5255  158.7402 C.3     1  UNL1        0.0339
     23 C         139.8914  138.3002  158.6883 C.3     1  UNL1        0.0339
     24 O         138.8607  139.4252  157.2145 O.3     1  UNL1       -0.3827
     25 H         138.2422  140.1063  156.9071 H       1  UNL1        0.2107
     26 C         141.3343  142.4460  163.1410 C.3     1  UNL1        0.1080
     27 C         142.7979  142.3780  163.4622 C.ar    1  UNL1       -0.0018
     28 C         143.7090  141.5234  162.6318 C.ar    1  UNL1       -0.0025
     29 C         145.1727  141.4554  162.9531 C.ar    1  UNL1       -0.0003
     30 C         145.7252  142.2419  164.1047 C.ar    1  UNL1       -0.0000
     31 C         144.8140  143.0964  164.9351 C.ar    1  UNL1       -0.0003
     32 C         143.3504  143.1645  164.6138 C.ar    1  UNL1       -0.0025
     33 C         140.7631  143.6774  162.5026 C.3     1  UNL1        0.0300
     34 C         139.6349  144.4111  163.1650 C.3     1  UNL1        0.0344
     35 C         139.0637  145.6425  162.5266 C.3     1  UNL1        0.1422
     36 O         139.6207  146.1400  161.2257 O.3     1  UNL1       -0.3538
     37 C         140.7489  145.4062  160.5633 C.3     1  UNL1        0.1422
     38 C         141.3201  144.1749  161.2017 C.3     1  UNL1        0.0344
@<TRIPOS>BOND
     1    14    15    1
     2    15    16   ar
     3    16    17   ar
     4    17    18   ar
     5    18    19    1
     6    18    20   ar
     7    20     1    1
     8     1     2   ar
     9     2     3   ar
    10     3     4   ar
    11     4     5   ar
    12     5     6   ar
    13     6     7   ar
    14     7     8   ar
    15     8    21    1
    16    21    22    1
    17    21    23    1
    18    21    24    1
    19     8     9   ar
    20     9    10   ar
    21    10    11   ar
    22    11    26    1
    23    26    27    1
    24    27    28   ar
    25    28    29   ar
    26    29    30   ar
    27    30    31   ar
    28    31    32   ar
    29    26    33    1
    30    33    34    1
    31    34    35    1
    32    35    36    1
    33    36    37    1
    34    37    38    1
    35    11    12   ar
    36    12    13   ar
    37    20    15   ar
    38    13     1   ar
    39    12     4   ar
    40    10     5   ar
    41    32    27   ar
    42    38    33    1
    43    24    25    1
@<TRIPOS>MOLECULE
*****
 38 43 0 0 0
SMALL
GASTEIGER

@<TRIPOS>ATOM
      1 C         140.6583  139.6068  158.6626 C.ar    1  UNL1        0.0246
      2 C         139.9134  138.3301  158.9176 C.ar    1  UNL1        0.0990
      3 N         139.4727  137.9841  160.3090 N.ar    1  UNL1       -0.2423
      4 C         139.7768  138.9148  161.4453 C.ar    1  UNL1        0.0984
      5 C         139.4715  138.8412  162.9122 C.ar    1  UNL1        0.0348
      6 C         138.7590  137.8121  163.7387 C.ar    1  UNL1        0.0027
      7 C         138.6026  138.0144  165.2167 C.ar    1  UNL1       -0.0019
      8 C         139.1588  139.2457  165.8682 C.ar    1  UNL1        0.0031
      9 C         139.8714  140.2748  165.0416 C.ar    1  UNL1        0.0152
     10 C         140.0277  140.0725  163.5637 C.ar    1  UNL1        0.0613
     11 N         140.6767  140.9070  162.4995 N.ar    1  UNL1       -0.3240
     12 C         140.5216  140.1915  161.1903 C.ar    1  UNL1        0.0780
     13 C         140.9624  140.5375  159.7990 C.ar    1  UNL1        0.0204
     14 C         142.9744  138.0759  156.9475 C.3     1  UNL1        0.0557
     15 C         142.1637  139.2493  156.4829 C.ar    1  UNL1        0.1006
     16 N         142.2752  139.9249  155.1483 N.ar    1  UNL1       -0.0817
     17 O         141.2794  141.0462  155.1118 O.2     1  UNL1       -0.3581
     18 C         140.5526  141.0635  156.4238 C.ar    1  UNL1        0.1544
     19 C         139.4694  142.0229  156.8190 C.3     1  UNL1        0.0754
     20 C         141.0991  139.9529  157.2712 C.ar    1  UNL1        0.0512
     21 C         139.0025  139.4479  167.3464 C.3     1  UNL1        0.1072
     22 C         137.7012  138.7027  167.3108 C.3     1  UNL1        0.0339
     23 C         140.3038  140.1931  167.3819 C.3     1  UNL1        0.0339
     24 O         138.8462  139.6502  168.8244 O.3     1  UNL1       -0.3827
     25 H         138.0192  139.2395  169.1213 H       1  UNL1        0.2107
     26 C         141.3607  142.2256  162.7079 C.3     1  UNL1        0.1080
     27 C         142.7517  142.2688  163.2675 C.ar    1  UNL1       -0.0018
     28 C         143.8327  141.4276  162.6560 C.ar    1  UNL1       -0.0025
     29 C         145.2238  141.4708  163.2157 C.ar    1  UNL1       -0.0003
     30 C         145.5338  142.3553  164.3868 C.ar    1  UNL1       -0.0000
     31 C         144.4529  143.1965  164.9983 C.ar    1  UNL1       -0.0003
     32 C         143.0619  143.1533  164.4387 C.ar    1  UNL1       -0.0025
     33 C         140.6537  143.5011  162.3567 C.3     1  UNL1        0.0300
     34 C         139.4914  143.9663  163.1829 C.3     1  UNL1        0.0344
     35 C         138.7844  145.2418  162.8317 C.3     1  UNL1        0.1422
     36 O         139.2397  146.0520  161.6544 O.3     1  UNL1       -0.3538
     37 C         140.4021  145.5869  160.8283 C.3     1  UNL1        0.1422
     38 C         141.1091  144.3114  161.1794 C.3     1  UNL1        0.0344
@<TRIPOS>BOND
     1    14    15    1
     2    15    16   ar
     3    16    17   ar
     4    17    18   ar
     5    18    19    1
     6    18    20   ar
     7    20     1    1
     8     1     2   ar
     9     2     3   ar
    10     3     4   ar
    11     4     5   ar
    12     5     6   ar
    13     6     7   ar
    14     7     8   ar
    15     8    21    1
    16    21    22    1
    17    21    23    1
    18    21    24    1
    19     8     9   ar
    20     9    10   ar
    21    10    11   ar
    22    11    26    1
    23    26    27    1
    24    27    28   ar
    25    28    29   ar
    26    29    30   ar
    27    30    31   ar
    28    31    32   ar
    29    26    33    1
    30    33    34    1
    31    34    35    1
    32    35    36    1
    33    36    37    1
    34    37    38    1
    35    11    12   ar
    36    12    13   ar
    37    20    15   ar
    38    13     1   ar
    39    12     4   ar
    40    10     5   ar
    41    32    27   ar
    42    38    33    1
    43    24    25    1
@<TRIPOS>MOLECULE
*****
 38 43 0 0 0
SMALL
GASTEIGER

@<TRIPOS>ATOM
      1 C         143.3750  139.6539  160.2097 C.ar    1  UNL1        0.0246
      2 C         144.4687  138.9743  160.9789 C.ar    1  UNL1        0.0990
      3 N         144.3653  138.8396  162.4692 N.ar    1  UNL1       -0.2423
      4 C         143.1683  139.3845  163.1903 C.ar    1  UNL1        0.0984
      5 C         142.7922  139.3997  164.6424 C.ar    1  UNL1        0.0348
      6 C         143.4860  138.8752  165.8644 C.ar    1  UNL1        0.0027
      7 C         142.8537  139.0397  167.2146 C.ar    1  UNL1       -0.0019
      8 C         141.5275  139.7288  167.3428 C.ar    1  UNL1        0.0031
      9 C         140.8337  140.2533  166.1207 C.ar    1  UNL1        0.0152
     10 C         141.4660  140.0888  164.7706 C.ar    1  UNL1        0.0613
     11 N         141.0225  140.4994  163.3977 N.ar    1  UNL1       -0.3240
     12 C         142.0745  140.0642  162.4211 C.ar    1  UNL1        0.0780
     13 C         142.1779  140.1989  160.9308 C.ar    1  UNL1        0.0204
     14 C         144.5601  142.2297  158.5940 C.3     1  UNL1        0.0557
     15 C         144.0230  140.9726  157.9767 C.ar    1  UNL1        0.1006
     16 N         143.9364  140.6787  156.5083 N.ar    1  UNL1       -0.0817
     17 O         143.3381  139.3131  156.3434 O.2     1  UNL1       -0.3581
     18 C         143.0549  138.7630  157.7098 C.ar    1  UNL1        0.1544
     19 C         142.4540  137.4227  158.0136 C.3     1  UNL1        0.0754
     20 C         143.4783  139.7887  158.7193 C.ar    1  UNL1        0.0512
     21 C         140.8951  139.8933  168.6930 C.3     1  UNL1        0.1072
     22 C         139.5949  140.2576  168.0397 C.3     1  UNL1        0.0339
     23 C         142.1953  139.5290  169.3463 C.3     1  UNL1        0.0339
     24 O         140.2628  140.0578  170.0432 O.3     1  UNL1       -0.3827
     25 H         139.3337  140.3154  169.9360 H       1  UNL1        0.2107
     26 C         139.7503  141.2190  163.0607 C.3     1  UNL1        0.1080
     27 C         139.3689  142.4601  163.8118 C.ar    1  UNL1       -0.0018
     28 C         137.9461  142.6722  164.2367 C.ar    1  UNL1       -0.0025
     29 C         137.5647  143.9134  164.9879 C.ar    1  UNL1       -0.0003
     30 C         138.6063  144.9424  165.3141 C.ar    1  UNL1       -0.0000
     31 C         140.0291  144.7303  164.8891 C.ar    1  UNL1       -0.0003
     32 C         140.4104  143.4892  164.1380 C.ar    1  UNL1       -0.0025
     33 C         138.8593  140.6975  161.9724 C.3     1  UNL1        0.0300
     34 C         138.0973  139.4214  162.1740 C.3     1  UNL1        0.0344
     35 C         137.2064  138.8998  161.0858 C.3     1  UNL1        0.1422
     36 O         137.0775  139.6545  159.7959 O.3     1  UNL1       -0.3538
     37 C         137.8395  140.9307  159.5943 C.3     1  UNL1        0.1422
     38 C         138.7304  141.4522  160.6825 C.3     1  UNL1        0.0344
@<TRIPOS>BOND
     1    14    15    1
     2    15    16   ar
     3    16    17   ar
     4    17    18   ar
     5    18    19    1
     6    18    20   ar
     7    20     1    1
     8     1     2   ar
     9     2     3   ar
    10     3     4   ar
    11     4     5   ar
    12     5     6   ar
    13     6     7   ar
    14     7     8   ar
    15     8    21    1
    16    21    22    1
    17    21    23    1
    18    21    24    1
    19     8     9   ar
    20     9    10   ar
    21    10    11   ar
    22    11    26    1
    23    26    27    1
    24    27    28   ar
    25    28    29   ar
    26    29    30   ar
    27    30    31   ar
    28    31    32   ar
    29    26    33    1
    30    33    34    1
    31    34    35    1
    32    35    36    1
    33    36    37    1
    34    37    38    1
    35    11    12   ar
    36    12    13   ar
    37    20    15   ar
    38    13     1   ar
    39    12     4   ar
    40    10     5   ar
    41    32    27   ar
    42    38    33    1
    43    24    25    1
@<TRIPOS>MOLECULE
*****
 38 43 0 0 0
SMALL
GASTEIGER

@<TRIPOS>ATOM
      1 C         139.8710  139.1829  160.3936 C.ar    1  UNL1        0.0246
      2 C         139.0835  138.0949  161.0613 C.ar    1  UNL1        0.0990
      3 N         138.8685  138.1275  162.5455 N.ar    1  UNL1       -0.2423
      4 C         139.4410  139.2481  163.3618 C.ar    1  UNL1        0.0984
      5 C         139.3939  139.5450  164.8314 C.ar    1  UNL1        0.0348
      6 C         138.7584  138.8218  165.9817 C.ar    1  UNL1        0.0027
      7 C         138.8814  139.3702  167.3724 C.ar    1  UNL1       -0.0019
      8 C         139.6398  140.6418  167.6128 C.ar    1  UNL1        0.0031
      9 C         140.2753  141.3650  166.4625 C.ar    1  UNL1        0.0152
     10 C         140.1523  140.8166  165.0719 C.ar    1  UNL1        0.0613
     11 N         140.6681  141.3055  163.7509 N.ar    1  UNL1       -0.3240
     12 C         140.2285  140.3361  162.6941 C.ar    1  UNL1        0.0780
     13 C         140.4435  140.3035  161.2099 C.ar    1  UNL1        0.0204
     14 C         142.3990  137.8118  158.8511 C.3     1  UNL1        0.0557
     15 C         141.2480  138.5202  158.2004 C.ar    1  UNL1        0.1006
     16 N         141.0570  138.7227  156.7265 N.ar    1  UNL1       -0.0817
     17 O         139.7768  139.4781  156.5245 O.2     1  UNL1       -0.3581
     18 C         139.1768  139.7424  157.8736 C.ar    1  UNL1        0.1544
     19 C         137.8930  140.4708  158.1401 C.3     1  UNL1        0.0754
     20 C         140.0861  139.1504  158.9094 C.ar    1  UNL1        0.0512
     21 C         139.7627  141.1903  169.0036 C.3     1  UNL1        0.1072
     22 C         138.9382  140.0512  169.5258 C.3     1  UNL1        0.0339
     23 C         140.5872  142.3293  168.4815 C.3     1  UNL1        0.0339
     24 O         139.8857  141.7387  170.3943 O.3     1  UNL1       -0.3827
     25 H         139.4095  141.1625  171.0124 H       1  UNL1        0.2107
     26 C         141.4809  142.5461  163.5263 C.3     1  UNL1        0.1080
     27 C         140.8675  143.7306  162.8404 C.ar    1  UNL1       -0.0018
     28 C         139.6349  144.3704  163.4074 C.ar    1  UNL1       -0.0025
     29 C         139.0215  145.5551  162.7214 C.ar    1  UNL1       -0.0003
     30 C         139.6407  146.0999  161.4685 C.ar    1  UNL1       -0.0000
     31 C         140.8733  145.4601  160.9015 C.ar    1  UNL1       -0.0003
     32 C         141.4866  144.2755  161.5875 C.ar    1  UNL1       -0.0025
     33 C         142.9071  142.6020  163.9875 C.3     1  UNL1        0.0300
     34 C         143.3152  143.5837  165.0457 C.3     1  UNL1        0.0344
     35 C         144.7414  143.6397  165.5069 C.3     1  UNL1        0.1422
     36 O         145.7596  142.7140  164.9099 O.3     1  UNL1       -0.3538
     37 C         145.3516  141.7324  163.8516 C.3     1  UNL1        0.1422
     38 C         143.9253  141.6764  163.3904 C.3     1  UNL1        0.0344
@<TRIPOS>BOND
     1    14    15    1
     2    15    16   ar
     3    16    17   ar
     4    17    18   ar
     5    18    19    1
     6    18    20   ar
     7    20     1    1
     8     1     2   ar
     9     2     3   ar
    10     3     4   ar
    11     4     5   ar
    12     5     6   ar
    13     6     7   ar
    14     7     8   ar
    15     8    21    1
    16    21    22    1
    17    21    23    1
    18    21    24    1
    19     8     9   ar
    20     9    10   ar
    21    10    11   ar
    22    11    26    1
    23    26    27    1
    24    27    28   ar
    25    28    29   ar
    26    29    30   ar
    27    30    31   ar
    28    31    32   ar
    29    26    33    1
    30    33    34    1
    31    34    35    1
    32    35    36    1
    33    36    37    1
    34    37    38    1
    35    11    12   ar
    36    12    13   ar
    37    20    15   ar
    38    13     1   ar
    39    12     4   ar
    40    10     5   ar
    41    32    27   ar
    42    38    33    1
    43    24    25    1
@<TRIPOS>MOLECULE
*****
 38 43 0 0 0
SMALL
GASTEIGER

@<TRIPOS>ATOM
      1 C         139.3358  139.4040  159.8037 C.ar    1  UNL1        0.0246
      2 C         138.5235  138.3379  160.4772 C.ar    1  UNL1        0.0990
      3 N         138.3965  138.3237  161.9717 N.ar    1  UNL1       -0.2423
      4 C         139.0816  139.3756  162.7927 C.ar    1  UNL1        0.0984
      5 C         139.1370  139.6159  164.2724 C.ar    1  UNL1        0.0348
      6 C         138.5261  138.8857  165.4314 C.ar    1  UNL1        0.0027
      7 C         138.7616  139.3701  166.8313 C.ar    1  UNL1       -0.0019
      8 C         139.6081  140.5847  167.0722 C.ar    1  UNL1        0.0031
      9 C         140.2191  141.3150  165.9131 C.ar    1  UNL1        0.0152
     10 C         139.9835  140.8306  164.5133 C.ar    1  UNL1        0.0613
     11 N         140.4513  141.3409  163.1825 N.ar    1  UNL1       -0.3240
     12 C         139.8939  140.4417  162.1192 C.ar    1  UNL1        0.0780
     13 C         140.0209  140.4559  160.6247 C.ar    1  UNL1        0.0204
     14 C         137.3471  140.9434  157.7240 C.3     1  UNL1        0.0557
     15 C         138.5488  140.1258  157.3532 C.ar    1  UNL1        0.1006
     16 N         139.0474  139.8722  155.9614 N.ar    1  UNL1       -0.0817
     17 O         140.2696  139.0079  156.0571 O.2     1  UNL1       -0.3581
     18 C         140.5264  138.7273  157.5081 C.ar    1  UNL1        0.1544
     19 C         141.6495  137.9009  158.0610 C.3     1  UNL1        0.0754
     20 C         139.4629  139.4182  158.3091 C.ar    1  UNL1        0.0512
     21 C         139.8437  141.0692  168.4722 C.3     1  UNL1        0.1072
     22 C         139.0070  139.9429  169.0028 C.3     1  UNL1        0.0339
     23 C         140.6804  142.1954  167.9417 C.3     1  UNL1        0.0339
     24 O         140.0793  141.5536  169.8722 O.3     1  UNL1       -0.3827
     25 H         139.6200  140.9714  170.4974 H       1  UNL1        0.2107
     26 C         141.3233  142.5400  162.9551 C.3     1  UNL1        0.1080
     27 C         142.7440  142.5363  163.4362 C.ar    1  UNL1       -0.0018
     28 C         143.1214  143.3073  164.6663 C.ar    1  UNL1       -0.0025
     29 C         144.5422  143.3036  165.1474 C.ar    1  UNL1       -0.0003
     30 C         145.5856  142.5288  164.3983 C.ar    1  UNL1       -0.0000
     31 C         145.2083  141.7578  163.1682 C.ar    1  UNL1       -0.0003
     32 C         143.7875  141.7615  162.6872 C.ar    1  UNL1       -0.0025
     33 C         140.7747  143.7428  162.2464 C.3     1  UNL1        0.0300
     34 C         139.7727  144.6245  162.9311 C.3     1  UNL1        0.0344
     35 C         139.2240  145.8273  162.2225 C.3     1  UNL1        0.1422
     36 O         139.6773  146.1485  160.8292 O.3     1  UNL1       -0.3538
     37 C         140.6793  145.2669  160.1445 C.3     1  UNL1        0.1422
     38 C         141.2280  144.0641  160.8531 C.3     1  UNL1        0.0344
@<TRIPOS>BOND
     1    14    15    1
     2    15    16   ar
     3    16    17   ar
     4    17    18   ar
     5    18    19    1
     6    18    20   ar
     7    20     1    1
     8     1     2   ar
     9     2     3   ar
    10     3     4   ar
    11     4     5   ar
    12     5     6   ar
    13     6     7   ar
    14     7     8   ar
    15     8    21    1
    16    21    22    1
    17    21    23    1
    18    21    24    1
    19     8     9   ar
    20     9    10   ar
    21    10    11   ar
    22    11    26    1
    23    26    27    1
    24    27    28   ar
    25    28    29   ar
    26    29    30   ar
    27    30    31   ar
    28    31    32   ar
    29    26    33    1
    30    33    34    1
    31    34    35    1
    32    35    36    1
    33    36    37    1
    34    37    38    1
    35    11    12   ar
    36    12    13   ar
    37    20    15   ar
    38    13     1   ar
    39    12     4   ar
    40    10     5   ar
    41    32    27   ar
    42    38    33    1
    43    24    25    1
@<TRIPOS>MOLECULE
*****
 38 43 0 0 0
SMALL
GASTEIGER

@<TRIPOS>ATOM
      1 C         141.3821  140.3623  167.5150 C.ar    1  UNL1        0.0246
      2 C         142.6432  139.5505  167.4978 C.ar    1  UNL1        0.0990
      3 N         143.2516  139.1377  166.1903 N.ar    1  UNL1       -0.2423
      4 C         142.5988  139.5367  164.9001 C.ar    1  UNL1        0.0984
      5 C         142.9642  139.2782  163.4684 C.ar    1  UNL1        0.0348
      6 C         144.1058  138.5333  162.8427 C.ar    1  UNL1        0.0027
      7 C         144.2122  138.4404  161.3493 C.ar    1  UNL1       -0.0019
      8 C         143.1768  139.0925  160.4818 C.ar    1  UNL1        0.0031
      9 C         142.0351  139.8375  161.1075 C.ar    1  UNL1        0.0152
     10 C         141.9288  139.9303  162.6008 C.ar    1  UNL1        0.0613
     11 N         140.9235  140.5918  163.4963 N.ar    1  UNL1       -0.3240
     12 C         141.3376  140.3485  164.9173 C.ar    1  UNL1        0.0780
     13 C         140.7293  140.7613  166.2248 C.ar    1  UNL1        0.0204
     14 C         142.7957  142.2368  169.7817 C.3     1  UNL1        0.0557
     15 C         141.4234  141.6368  169.8643 C.ar    1  UNL1        0.1006
     16 N         140.4600  141.7930  171.0033 N.ar    1  UNL1       -0.0817
     17 O         139.2147  141.0280  170.6654 O.2     1  UNL1       -0.3581
     18 C         139.4086  140.3990  169.3176 C.ar    1  UNL1        0.1544
     19 C         138.4123  139.5438  168.5922 C.3     1  UNL1        0.0754
     20 C         140.7737  140.7752  168.8225 C.ar    1  UNL1        0.0512
     21 C         143.2831  138.9997  158.9883 C.3     1  UNL1        0.1072
     22 C         142.6663  137.6331  159.0293 C.3     1  UNL1        0.0339
     23 C         143.8999  140.3664  158.9474 C.3     1  UNL1        0.0339
     24 O         143.3894  138.9070  157.4950 O.3     1  UNL1       -0.3827
     25 H         143.0363  138.0538  157.1981 H       1  UNL1        0.2107
     26 C         139.7162  141.3614  163.0493 C.3     1  UNL1        0.1080
     27 C         139.2907  142.5901  163.7971 C.ar    1  UNL1       -0.0018
     28 C         140.2755  143.6929  164.0499 C.ar    1  UNL1       -0.0025
     29 C         139.8499  144.9216  164.7978 C.ar    1  UNL1       -0.0003
     30 C         138.4395  145.0475  165.2928 C.ar    1  UNL1       -0.0000
     31 C         137.4547  143.9447  165.0400 C.ar    1  UNL1       -0.0003
     32 C         137.8803  142.7160  164.2921 C.ar    1  UNL1       -0.0025
     33 C         138.9342  140.9024  161.8544 C.3     1  UNL1        0.0300
     34 C         138.9650  141.7019  160.5856 C.3     1  UNL1        0.0344
     35 C         138.1830  141.2429  159.3907 C.3     1  UNL1        0.1422
     36 O         137.3703  139.9844  159.4645 O.3     1  UNL1       -0.3538
     37 C         137.3395  139.1848  160.7333 C.3     1  UNL1        0.1422
     38 C         138.1215  139.6438  161.9282 C.3     1  UNL1        0.0344
@<TRIPOS>BOND
     1    14    15    1
     2    15    16   ar
     3    16    17   ar
     4    17    18   ar
     5    18    19    1
     6    18    20   ar
     7    20     1    1
     8     1     2   ar
     9     2     3   ar
    10     3     4   ar
    11     4     5   ar
    12     5     6   ar
    13     6     7   ar
    14     7     8   ar
    15     8    21    1
    16    21    22    1
    17    21    23    1
    18    21    24    1
    19     8     9   ar
    20     9    10   ar
    21    10    11   ar
    22    11    26    1
    23    26    27    1
    24    27    28   ar
    25    28    29   ar
    26    29    30   ar
    27    30    31   ar
    28    31    32   ar
    29    26    33    1
    30    33    34    1
    31    34    35    1
    32    35    36    1
    33    36    37    1
    34    37    38    1
    35    11    12   ar
    36    12    13   ar
    37    20    15   ar
    38    13     1   ar
    39    12     4   ar
    40    10     5   ar
    41    32    27   ar
    42    38    33    1
    43    24    25    1
