@<TRIPOS>MOLECULE
*****
 34 38 0 0 0
SMALL
GASTEIGER

@<TRIPOS>ATOM
      1 O         138.4713  139.7359  169.7018 O.2     1  UNL1       -0.2699
      2 C         139.5364  140.2979  168.8075 C.2     1  UNL1        0.2490
      3 N         139.5512  139.9500  167.3485 N.am    1  UNL1       -0.2761
      4 C         138.5010  139.0400  166.7837 C.3     1  UNL1        0.0937
      5 C         138.5159  138.6921  165.3247 C.3     1  UNL1        0.0217
      6 C         139.5810  139.2542  164.4305 C.3     1  UNL1        0.0060
      7 C         138.5307  138.3442  163.8657 C.3     1  UNL1        0.0175
      8 C         138.5456  137.9963  162.4067 C.3     1  UNL1        0.0724
      9 N         139.6107  138.5583  161.5124 N.3     1  UNL1       -0.2689
     10 C         140.6610  139.4682  162.0772 C.3     1  UNL1        0.0724
     11 C         140.6461  139.8162  163.5363 C.3     1  UNL1        0.0175
     12 C         140.6312  140.1641  164.9952 C.3     1  UNL1        0.0217
     13 C         140.6163  140.5120  166.4542 C.3     1  UNL1        0.0937
     14 C         140.5866  141.2079  169.3723 C.ar    1  UNL1        0.0536
     15 C         140.3187  142.6788  169.4925 C.ar    1  UNL1        0.0054
     16 C         141.3690  143.5888  170.0573 C.ar    1  UNL1        0.0115
     17 C         142.6871  143.0278  170.5018 C.ar    1  UNL1        0.0577
     18 CL        143.7373  143.9377  171.0666 Cl      1  UNL1       -0.0822
     19 C         142.9551  141.5568  170.3816 C.ar    1  UNL1        0.0115
     20 C         141.9048  140.6468  169.8169 C.ar    1  UNL1        0.0054
     21 C         139.6256  138.2103  160.0534 C.3     1  UNL1        0.1022
     22 C         139.7438  139.2956  159.0247 C.ar    1  UNL1        0.0284
     23 C         140.7565  139.1789  157.9243 C.ar    1  UNL1        0.0001
     24 C         140.8748  140.2641  156.8956 C.ar    1  UNL1       -0.0001
     25 C         139.9803  141.4662  156.9673 C.ar    1  UNL1        0.0031
     26 C         138.9676  141.5829  158.0677 C.ar    1  UNL1        0.0372
     27 C         138.8494  140.4976  159.0964 C.ar    1  UNL1        0.1426
     28 O         137.8367  140.6143  160.1968 O.3     1  UNL1       -0.4538
     29 C         138.0752  141.5576  161.3386 C.ar    1  UNL1        0.1453
     30 C         139.1001  142.6453  161.2112 C.ar    1  UNL1        0.0375
     31 C         139.3385  143.5885  162.3529 C.ar    1  UNL1        0.0031
     32 C         138.5520  143.4440  163.6219 C.ar    1  UNL1        0.0002
     33 C         137.5271  142.3562  163.7493 C.ar    1  UNL1        0.0031
     34 C         137.2887  141.4130  162.6076 C.ar    1  UNL1        0.0375
@<TRIPOS>BOND
     1     1     2    2
     2     2    14    1
     3    14    15   ar
     4    15    16   ar
     5    16    17   ar
     6    17    18    1
     7    17    19   ar
     8    19    20   ar
     9     2     3   am
    10     3     4    1
    11     4     5    1
    12     5     6    1
    13     6     7    1
    14     7     8    1
    15     8     9    1
    16     9    21    1
    17    21    22    1
    18    22    23   ar
    19    23    24   ar
    20    24    25   ar
    21    25    26   ar
    22    26    27   ar
    23    27    28    1
    24    28    29    1
    25    29    30   ar
    26    30    31   ar
    27    31    32   ar
    28    32    33   ar
    29    33    34   ar
    30     9    10    1
    31    10    11    1
    32     6    12    1
    33    12    13    1
    34    20    14   ar
    35    13     3    1
    36    11     6    1
    37    27    22   ar
    38    34    29   ar
@<TRIPOS>MOLECULE
*****
 34 38 0 0 0
SMALL
GASTEIGER

@<TRIPOS>ATOM
      1 O         143.3489  138.4220  168.3894 O.2     1  UNL1       -0.2699
      2 C         142.5419  139.4991  167.7272 C.2     1  UNL1        0.2490
      3 N         142.5189  139.6068  166.2312 N.am    1  UNL1       -0.2761
      4 C         143.3030  138.6373  165.3974 C.3     1  UNL1        0.0937
      5 C         143.2801  138.7450  163.9015 C.3     1  UNL1        0.0217
      6 C         142.4730  139.8221  163.2394 C.3     1  UNL1        0.0060
      7 C         143.2571  138.8526  162.4055 C.3     1  UNL1        0.0175
      8 C         143.2342  138.9603  160.9096 C.3     1  UNL1        0.0724
      9 N         142.4271  140.0374  160.2475 N.3     1  UNL1       -0.2689
     10 C         141.6430  141.0069  161.0812 C.3     1  UNL1        0.0724
     11 C         141.6660  140.8993  162.5773 C.3     1  UNL1        0.0175
     12 C         141.6889  140.7916  164.0732 C.3     1  UNL1        0.0217
     13 C         141.7119  140.6839  165.5691 C.3     1  UNL1        0.0937
     14 C         141.7578  140.4686  168.5610 C.ar    1  UNL1        0.0536
     15 C         142.3547  141.7943  168.9302 C.ar    1  UNL1        0.0054
     16 C         141.5705  142.7638  169.7640 C.ar    1  UNL1        0.0115
     17 C         140.1895  142.4076  170.2287 C.ar    1  UNL1        0.0577
     18 CL        139.4054  143.3771  171.0625 Cl      1  UNL1       -0.0822
     19 C         139.5926  141.0819  169.8595 C.ar    1  UNL1        0.0115
     20 C         140.3767  140.1124  169.0258 C.ar    1  UNL1        0.0054
     21 C         142.4042  140.1451  158.7514 C.3     1  UNL1        0.1022
     22 C         141.9258  138.9893  157.9236 C.ar    1  UNL1        0.0284
     23 C         142.9178  138.0797  157.2613 C.ar    1  UNL1        0.0001
     24 C         142.4394  136.9240  156.4335 C.ar    1  UNL1       -0.0001
     25 C         140.9690  136.6778  156.2679 C.ar    1  UNL1        0.0031
     26 C         139.9770  137.5874  156.9302 C.ar    1  UNL1        0.0372
     27 C         140.4555  138.7432  157.7580 C.ar    1  UNL1        0.1426
     28 O         139.4635  139.6528  158.4203 O.3     1  UNL1       -0.4538
     29 C         139.0419  139.3981  159.8372 C.ar    1  UNL1        0.1453
     30 C         139.5433  138.1846  160.5624 C.ar    1  UNL1        0.0375
     31 C         139.1217  137.9300  161.9791 C.ar    1  UNL1        0.0031
     32 C         138.1986  138.8889  162.6708 C.ar    1  UNL1        0.0002
     33 C         137.6971  140.1024  161.9456 C.ar    1  UNL1        0.0031
     34 C         138.1188  140.3570  160.5288 C.ar    1  UNL1        0.0375
@<TRIPOS>BOND
     1     1     2    2
     2     2    14    1
     3    14    15   ar
     4    15    16   ar
     5    16    17   ar
     6    17    18    1
     7    17    19   ar
     8    19    20   ar
     9     2     3   am
    10     3     4    1
    11     4     5    1
    12     5     6    1
    13     6     7    1
    14     7     8    1
    15     8     9    1
    16     9    21    1
    17    21    22    1
    18    22    23   ar
    19    23    24   ar
    20    24    25   ar
    21    25    26   ar
    22    26    27   ar
    23    27    28    1
    24    28    29    1
    25    29    30   ar
    26    30    31   ar
    27    31    32   ar
    28    32    33   ar
    29    33    34   ar
    30     9    10    1
    31    10    11    1
    32     6    12    1
    33    12    13    1
    34    20    14   ar
    35    13     3    1
    36    11     6    1
    37    27    22   ar
    38    34    29   ar
@<TRIPOS>MOLECULE
*****
 34 38 0 0 0
SMALL
GASTEIGER

@<TRIPOS>ATOM
      1 O         137.7956  139.9226  158.3566 O.2     1  UNL1       -0.2699
      2 C         139.0615  139.5074  159.0459 C.2     1  UNL1        0.2490
      3 N         139.1562  139.5700  160.5417 N.am    1  UNL1       -0.2761
      4 C         137.9851  140.0477  161.3480 C.3     1  UNL1        0.0937
      5 C         138.0799  140.1102  162.8437 C.3     1  UNL1        0.0217
      6 C         139.3458  139.6950  163.5330 C.3     1  UNL1        0.0060
      7 C         138.1746  140.1728  164.3395 C.3     1  UNL1        0.0175
      8 C         138.2694  140.2353  165.8351 C.3     1  UNL1        0.0724
      9 N         139.5353  139.8201  166.5244 N.3     1  UNL1       -0.2689
     10 C         140.7064  139.3423  165.7181 C.3     1  UNL1        0.0724
     11 C         140.6116  139.2798  164.2223 C.3     1  UNL1        0.0175
     12 C         140.5169  139.2173  162.7267 C.3     1  UNL1        0.0217
     13 C         140.4221  139.1547  161.2310 C.3     1  UNL1        0.0937
     14 C         140.2326  139.0297  158.2396 C.ar    1  UNL1        0.0536
     15 C         141.4133  139.9298  158.0259 C.ar    1  UNL1        0.0054
     16 C         142.5844  139.4520  157.2195 C.ar    1  UNL1        0.0115
     17 C         142.5748  138.0741  156.6269 C.ar    1  UNL1        0.0577
     18 CL        143.7459  137.5964  155.8205 Cl      1  UNL1       -0.0822
     19 C         141.3941  137.1740  156.8406 C.ar    1  UNL1        0.0115
     20 C         140.2230  137.6517  157.6469 C.ar    1  UNL1        0.0054
     21 C         139.6300  139.8826  168.0202 C.3     1  UNL1        0.1022
     22 C         140.8637  140.4340  168.6712 C.ar    1  UNL1        0.0284
     23 C         141.7296  139.5438  169.5125 C.ar    1  UNL1        0.0001
     24 C         142.9633  140.0952  170.1634 C.ar    1  UNL1       -0.0001
     25 C         143.3313  141.5370  169.9731 C.ar    1  UNL1        0.0031
     26 C         142.4654  142.4272  169.1318 C.ar    1  UNL1        0.0372
     27 C         141.2316  141.8757  168.4808 C.ar    1  UNL1        0.1426
     28 O         140.3658  142.7659  167.6395 O.3     1  UNL1       -0.4538
     29 C         140.6534  142.9264  166.1760 C.ar    1  UNL1        0.1453
     30 C         141.9949  142.5386  165.6285 C.ar    1  UNL1        0.0375
     31 C         142.2825  142.6991  164.1651 C.ar    1  UNL1        0.0031
     32 C         141.2286  143.2474  163.2493 C.ar    1  UNL1        0.0002
     33 C         139.8871  143.6352  163.7969 C.ar    1  UNL1        0.0031
     34 C         139.5995  143.4747  165.2603 C.ar    1  UNL1        0.0375
@<TRIPOS>BOND
     1     1     2    2
     2     2    14    1
     3    14    15   ar
     4    15    16   ar
     5    16    17   ar
     6    17    18    1
     7    17    19   ar
     8    19    20   ar
     9     2     3   am
    10     3     4    1
    11     4     5    1
    12     5     6    1
    13     6     7    1
    14     7     8    1
    15     8     9    1
    16     9    21    1
    17    21    22    1
    18    22    23   ar
    19    23    24   ar
    20    24    25   ar
    21    25    26   ar
    22    26    27   ar
    23    27    28    1
    24    28    29    1
    25    29    30   ar
    26    30    31   ar
    27    31    32   ar
    28    32    33   ar
    29    33    34   ar
    30     9    10    1
    31    10    11    1
    32     6    12    1
    33    12    13    1
    34    20    14   ar
    35    13     3    1
    36    11     6    1
    37    27    22   ar
    38    34    29   ar
@<TRIPOS>MOLECULE
*****
 34 38 0 0 0
SMALL
GASTEIGER

@<TRIPOS>ATOM
      1 O         140.9728  142.0163  158.6071 O.2     1  UNL1       -0.2699
      2 C         140.8705  140.6556  159.2299 C.2     1  UNL1        0.2490
      3 N         140.6098  140.5218  160.7011 N.am    1  UNL1       -0.2761
      4 C         140.4515  141.7487  161.5493 C.3     1  UNL1        0.0937
      5 C         140.1909  141.6149  163.0204 C.3     1  UNL1        0.0217
      6 C         140.0885  140.2542  163.6432 C.3     1  UNL1        0.0060
      7 C         139.9302  141.4812  164.4915 C.3     1  UNL1        0.0175
      8 C         139.6696  141.3474  165.9626 C.3     1  UNL1        0.0724
      9 N         139.5672  139.9866  166.5855 N.3     1  UNL1       -0.2689
     10 C         139.7255  138.7597  165.7372 C.3     1  UNL1        0.0724
     11 C         139.9861  138.8935  164.2661 C.3     1  UNL1        0.0175
     12 C         140.2468  139.0273  162.7950 C.3     1  UNL1        0.0217
     13 C         140.5074  139.1611  161.3239 C.3     1  UNL1        0.0937
     14 C         141.0287  139.4286  158.3817 C.ar    1  UNL1        0.0536
     15 C         142.3826  138.8067  158.2076 C.ar    1  UNL1        0.0054
     16 C         142.5408  137.5797  157.3593 C.ar    1  UNL1        0.0115
     17 C         141.3453  136.9747  156.6852 C.ar    1  UNL1        0.0577
     18 CL        141.5035  135.7478  155.8369 Cl      1  UNL1       -0.0822
     19 C         139.9914  137.5966  156.8592 C.ar    1  UNL1        0.0115
     20 C         139.8331  138.8236  157.7075 C.ar    1  UNL1        0.0054
     21 C         139.3065  139.8529  168.0566 C.3     1  UNL1        0.1022
     22 C         140.1707  140.5838  169.0409 C.ar    1  UNL1        0.0284
     23 C         139.5650  141.6051  169.9573 C.ar    1  UNL1        0.0001
     24 C         140.4292  142.3360  170.9416 C.ar    1  UNL1       -0.0001
     25 C         141.8993  142.0455  171.0096 C.ar    1  UNL1        0.0031
     26 C         142.5050  141.0242  170.0931 C.ar    1  UNL1        0.0372
     27 C         141.6407  140.2933  169.1088 C.ar    1  UNL1        0.1426
     28 O         142.2465  139.2719  168.1924 O.3     1  UNL1       -0.4538
     29 C         142.8769  139.7028  166.9012 C.ar    1  UNL1        0.1453
     30 C         143.0046  141.1622  166.5793 C.ar    1  UNL1        0.0375
     31 C         143.6349  141.5931  165.2882 C.ar    1  UNL1        0.0031
     32 C         144.1374  140.5644  164.3189 C.ar    1  UNL1        0.0002
     33 C         144.0097  139.1050  164.6408 C.ar    1  UNL1        0.0031
     34 C         143.3794  138.6742  165.9320 C.ar    1  UNL1        0.0375
@<TRIPOS>BOND
     1     1     2    2
     2     2    14    1
     3    14    15   ar
     4    15    16   ar
     5    16    17   ar
     6    17    18    1
     7    17    19   ar
     8    19    20   ar
     9     2     3   am
    10     3     4    1
    11     4     5    1
    12     5     6    1
    13     6     7    1
    14     7     8    1
    15     8     9    1
    16     9    21    1
    17    21    22    1
    18    22    23   ar
    19    23    24   ar
    20    24    25   ar
    21    25    26   ar
    22    26    27   ar
    23    27    28    1
    24    28    29    1
    25    29    30   ar
    26    30    31   ar
    27    31    32   ar
    28    32    33   ar
    29    33    34   ar
    30     9    10    1
    31    10    11    1
    32     6    12    1
    33    12    13    1
    34    20    14   ar
    35    13     3    1
    36    11     6    1
    37    27    22   ar
    38    34    29   ar
@<TRIPOS>MOLECULE
*****
 34 38 0 0 0
SMALL
GASTEIGER

@<TRIPOS>ATOM
      1 O         142.0500  141.1190  157.6954 O.2     1  UNL1       -0.2699
      2 C         141.9727  139.7996  158.4048 C.2     1  UNL1        0.2490
      3 N         142.0868  139.7439  159.8995 N.am    1  UNL1       -0.2761
      4 C         142.2782  141.0076  160.6847 C.3     1  UNL1        0.0937
      5 C         142.3923  140.9518  162.1792 C.3     1  UNL1        0.0217
      6 C         142.3151  139.6325  162.8887 C.3     1  UNL1        0.0060
      7 C         142.5065  140.8961  163.6739 C.3     1  UNL1        0.0175
      8 C         142.6206  140.8404  165.1685 C.3     1  UNL1        0.0724
      9 N         142.5433  139.5210  165.8779 N.3     1  UNL1       -0.2689
     10 C         142.3519  138.2574  165.0927 C.3     1  UNL1        0.0724
     11 C         142.2378  138.3131  163.5981 C.3     1  UNL1        0.0175
     12 C         142.1237  138.3688  162.1035 C.3     1  UNL1        0.0217
     13 C         142.0096  138.4246  160.6089 C.3     1  UNL1        0.0937
     14 C         141.7813  138.5360  157.6197 C.ar    1  UNL1        0.0536
     15 C         140.4400  138.2155  157.0295 C.ar    1  UNL1        0.0054
     16 C         140.2487  136.9518  156.2443 C.ar    1  UNL1        0.0115
     17 C         141.3986  136.0086  156.0493 C.ar    1  UNL1        0.0577
     18 CL        141.2072  134.7450  155.2641 Cl      1  UNL1       -0.0822
     19 C         142.7399  136.3291  156.6395 C.ar    1  UNL1        0.0115
     20 C         142.9313  137.5927  157.4246 C.ar    1  UNL1        0.0054
     21 C         142.6574  139.4653  167.3726 C.3     1  UNL1        0.1022
     22 C         142.1372  140.5979  168.2072 C.ar    1  UNL1        0.0284
     23 C         143.0924  141.5798  168.8181 C.ar    1  UNL1        0.0001
     24 C         142.5722  142.7124  169.6527 C.ar    1  UNL1       -0.0001
     25 C         141.0966  142.8630  169.8765 C.ar    1  UNL1        0.0031
     26 C         140.1413  141.8810  169.2656 C.ar    1  UNL1        0.0372
     27 C         140.6617  140.7484  168.4309 C.ar    1  UNL1        0.1426
     28 O         139.7064  139.7665  167.8200 O.3     1  UNL1       -0.4538
     29 C         139.2923  139.9158  166.3859 C.ar    1  UNL1        0.1453
     30 C         138.9618  138.7011  165.5704 C.ar    1  UNL1        0.0375
     31 C         138.5478  138.8504  164.1365 C.ar    1  UNL1        0.0031
     32 C         138.4643  140.2145  163.5181 C.ar    1  UNL1        0.0002
     33 C         138.7949  141.4292  164.3336 C.ar    1  UNL1        0.0031
     34 C         139.2089  141.2798  165.7675 C.ar    1  UNL1        0.0375
@<TRIPOS>BOND
     1     1     2    2
     2     2    14    1
     3    14    15   ar
     4    15    16   ar
     5    16    17   ar
     6    17    18    1
     7    17    19   ar
     8    19    20   ar
     9     2     3   am
    10     3     4    1
    11     4     5    1
    12     5     6    1
    13     6     7    1
    14     7     8    1
    15     8     9    1
    16     9    21    1
    17    21    22    1
    18    22    23   ar
    19    23    24   ar
    20    24    25   ar
    21    25    26   ar
    22    26    27   ar
    23    27    28    1
    24    28    29    1
    25    29    30   ar
    26    30    31   ar
    27    31    32   ar
    28    32    33   ar
    29    33    34   ar
    30     9    10    1
    31    10    11    1
    32     6    12    1
    33    12    13    1
    34    20    14   ar
    35    13     3    1
    36    11     6    1
    37    27    22   ar
    38    34    29   ar
@<TRIPOS>MOLECULE
*****
 34 38 0 0 0
SMALL
GASTEIGER

@<TRIPOS>ATOM
      1 O         145.1759  139.2824  156.1877 O.2     1  UNL1       -0.2699
      2 C         144.9925  140.7122  156.6024 C.2     1  UNL1        0.2490
      3 N         144.2167  141.0395  157.8438 N.am    1  UNL1       -0.2761
      4 C         143.6242  139.9370  158.6705 C.3     1  UNL1        0.0937
      5 C         142.8483  140.2643  159.9118 C.3     1  UNL1        0.0217
      6 C         142.6650  141.6942  160.3264 C.3     1  UNL1        0.0060
      7 C         142.0725  140.5916  161.1532 C.3     1  UNL1        0.0175
      8 C         141.2967  140.9190  162.3945 C.3     1  UNL1        0.0724
      9 N         141.1133  142.3488  162.8092 N.3     1  UNL1       -0.2689
     10 C         141.7058  143.4513  161.9825 C.3     1  UNL1        0.0724
     11 C         142.4817  143.1240  160.7411 C.3     1  UNL1        0.0175
     12 C         143.2575  142.7967  159.4998 C.3     1  UNL1        0.0217
     13 C         144.0333  142.4694  158.2585 C.3     1  UNL1        0.0937
     14 C         145.5850  141.8147  155.7758 C.ar    1  UNL1        0.0536
     15 C         144.7353  142.5427  154.7768 C.ar    1  UNL1        0.0054
     16 C         145.3279  143.6453  153.9501 C.ar    1  UNL1        0.0115
     17 C         146.7701  144.0198  154.1225 C.ar    1  UNL1        0.0577
     18 CL        147.3626  145.1223  153.2959 Cl      1  UNL1       -0.0822
     19 C         147.6198  143.2918  155.1215 C.ar    1  UNL1        0.0115
     20 C         147.0273  142.1893  155.9481 C.ar    1  UNL1        0.0054
     21 C         140.3375  142.6761  164.0505 C.3     1  UNL1        0.1022
     22 C         139.8991  141.5772  164.9726 C.ar    1  UNL1        0.0284
     23 C         138.5886  140.8843  164.7439 C.ar    1  UNL1        0.0001
     24 C         138.1502  139.7854  165.6659 C.ar    1  UNL1       -0.0001
     25 C         139.0225  139.3793  166.8167 C.ar    1  UNL1        0.0031
     26 C         140.3330  140.0722  167.0455 C.ar    1  UNL1        0.0372
     27 C         140.7714  141.1712  166.1234 C.ar    1  UNL1        0.1426
     28 O         142.0819  141.8641  166.3521 O.3     1  UNL1       -0.4538
     29 C         143.2444  141.5884  165.4450 C.ar    1  UNL1        0.1453
     30 C         144.0362  142.7269  164.8733 C.ar    1  UNL1        0.0375
     31 C         145.1986  142.4511  163.9663 C.ar    1  UNL1        0.0031
     32 C         145.5692  141.0369  163.6310 C.ar    1  UNL1        0.0002
     33 C         144.7775  139.8984  164.2026 C.ar    1  UNL1        0.0031
     34 C         143.6151  140.1741  165.1097 C.ar    1  UNL1        0.0375
@<TRIPOS>BOND
     1     1     2    2
     2     2    14    1
     3    14    15   ar
     4    15    16   ar
     5    16    17   ar
     6    17    18    1
     7    17    19   ar
     8    19    20   ar
     9     2     3   am
    10     3     4    1
    11     4     5    1
    12     5     6    1
    13     6     7    1
    14     7     8    1
    15     8     9    1
    16     9    21    1
    17    21    22    1
    18    22    23   ar
    19    23    24   ar
    20    24    25   ar
    21    25    26   ar
    22    26    27   ar
    23    27    28    1
    24    28    29    1
    25    29    30   ar
    26    30    31   ar
    27    31    32   ar
    28    32    33   ar
    29    33    34   ar
    30     9    10    1
    31    10    11    1
    32     6    12    1
    33    12    13    1
    34    20    14   ar
    35    13     3    1
    36    11     6    1
    37    27    22   ar
    38    34    29   ar
@<TRIPOS>MOLECULE
*****
 34 38 0 0 0
SMALL
GASTEIGER

@<TRIPOS>ATOM
      1 O         137.2459  140.2543  158.1312 O.2     1  UNL1       -0.2699
      2 C         138.6957  140.0640  158.4655 C.2     1  UNL1        0.2490
      3 N         139.2169  140.4823  159.8085 N.am    1  UNL1       -0.2761
      4 C         138.2883  141.0908  160.8171 C.3     1  UNL1        0.0937
      5 C         138.8095  141.5090  162.1600 C.3     1  UNL1        0.0217
      6 C         140.2593  141.3187  162.4943 C.3     1  UNL1        0.0060
      7 C         139.3306  141.9272  163.5029 C.3     1  UNL1        0.0175
      8 C         139.8518  142.3454  164.8458 C.3     1  UNL1        0.0724
      9 N         141.3016  142.1551  165.1802 N.3     1  UNL1       -0.2689
     10 C         142.2303  141.5466  164.1716 C.3     1  UNL1        0.0724
     11 C         141.7091  141.1284  162.8286 C.3     1  UNL1        0.0175
     12 C         141.1879  140.7102  161.4857 C.3     1  UNL1        0.0217
     13 C         140.6668  140.2920  160.1428 C.3     1  UNL1        0.0937
     14 C         139.6244  139.4555  157.4569 C.ar    1  UNL1        0.0536
     15 C         139.8368  137.9708  157.4328 C.ar    1  UNL1        0.0054
     16 C         140.7655  137.3623  156.4242 C.ar    1  UNL1        0.0115
     17 C         141.4818  138.2385  155.4397 C.ar    1  UNL1        0.0577
     18 CL        142.4104  137.6300  154.4311 Cl      1  UNL1       -0.0822
     19 C         141.2693  139.7232  155.4638 C.ar    1  UNL1        0.0115
     20 C         140.3407  140.3317  156.4723 C.ar    1  UNL1        0.0054
     21 C         141.8228  142.5734  166.5231 C.3     1  UNL1        0.1022
     22 C         141.1859  142.0428  167.7732 C.ar    1  UNL1        0.0284
     23 C         140.5602  142.9881  168.7556 C.ar    1  UNL1        0.0001
     24 C         139.9233  142.4576  170.0057 C.ar    1  UNL1       -0.0001
     25 C         139.9120  140.9817  170.2735 C.ar    1  UNL1        0.0031
     26 C         140.5377  140.0364  169.2912 C.ar    1  UNL1        0.0372
     27 C         141.1747  140.5670  168.0410 C.ar    1  UNL1        0.1426
     28 O         141.8003  139.6217  167.0587 O.3     1  UNL1       -0.4538
     29 C         140.9524  138.9507  166.0191 C.ar    1  UNL1        0.1453
     30 C         139.4657  139.1497  166.0211 C.ar    1  UNL1        0.0375
     31 C         138.6178  138.4786  164.9816 C.ar    1  UNL1        0.0031
     32 C         139.2566  137.6086  163.9400 C.ar    1  UNL1        0.0002
     33 C         140.7433  137.4096  163.9379 C.ar    1  UNL1        0.0031
     34 C         141.5912  138.0806  164.9775 C.ar    1  UNL1        0.0375
@<TRIPOS>BOND
     1     1     2    2
     2     2    14    1
     3    14    15   ar
     4    15    16   ar
     5    16    17   ar
     6    17    18    1
     7    17    19   ar
     8    19    20   ar
     9     2     3   am
    10     3     4    1
    11     4     5    1
    12     5     6    1
    13     6     7    1
    14     7     8    1
    15     8     9    1
    16     9    21    1
    17    21    22    1
    18    22    23   ar
    19    23    24   ar
    20    24    25   ar
    21    25    26   ar
    22    26    27   ar
    23    27    28    1
    24    28    29    1
    25    29    30   ar
    26    30    31   ar
    27    31    32   ar
    28    32    33   ar
    29    33    34   ar
    30     9    10    1
    31    10    11    1
    32     6    12    1
    33    12    13    1
    34    20    14   ar
    35    13     3    1
    36    11     6    1
    37    27    22   ar
    38    34    29   ar
@<TRIPOS>MOLECULE
*****
 34 38 0 0 0
SMALL
GASTEIGER

@<TRIPOS>ATOM
      1 O         143.3119  138.7291  167.7489 O.2     1  UNL1       -0.2699
      2 C         142.3995  139.8040  167.2372 C.2     1  UNL1        0.2490
      3 N         142.2354  140.0083  165.7602 N.am    1  UNL1       -0.2761
      4 C         142.9838  139.1376  164.7950 C.3     1  UNL1        0.0937
      5 C         142.8198  139.3419  163.3181 C.3     1  UNL1        0.0217
      6 C         141.9073  140.4168  162.8064 C.3     1  UNL1        0.0060
      7 C         142.6558  139.5461  161.8411 C.3     1  UNL1        0.0175
      8 C         142.4917  139.7504  160.3642 C.3     1  UNL1        0.0724
      9 N         141.5793  140.8254  159.8525 N.3     1  UNL1       -0.2689
     10 C         140.8309  141.6961  160.8177 C.3     1  UNL1        0.0724
     11 C         140.9949  141.4918  162.2947 C.3     1  UNL1        0.0175
     12 C         141.1589  141.2876  163.7716 C.3     1  UNL1        0.0217
     13 C         141.3230  141.0833  165.2485 C.3     1  UNL1        0.0937
     14 C         141.6511  140.6748  168.2024 C.ar    1  UNL1        0.0536
     15 C         140.3341  140.2193  168.7577 C.ar    1  UNL1        0.0054
     16 C         139.5857  141.0901  169.7230 C.ar    1  UNL1        0.0115
     17 C         140.1542  142.4163  170.1329 C.ar    1  UNL1        0.0577
     18 CL        139.4058  143.2870  171.0982 Cl      1  UNL1       -0.0822
     19 C         141.4712  142.8717  169.5777 C.ar    1  UNL1        0.0115
     20 C         142.2196  142.0010  168.6124 C.ar    1  UNL1        0.0054
     21 C         141.4152  141.0296  158.3755 C.3     1  UNL1        0.1022
     22 C         140.1232  141.5625  157.8310 C.ar    1  UNL1        0.0284
     23 C         140.0770  142.9273  157.2102 C.ar    1  UNL1        0.0001
     24 C         138.7849  143.4602  156.6657 C.ar    1  UNL1       -0.0001
     25 C         137.5390  142.6284  156.7419 C.ar    1  UNL1        0.0031
     26 C         137.5852  141.2636  157.3627 C.ar    1  UNL1        0.0372
     27 C         138.8773  140.7307  157.9072 C.ar    1  UNL1        0.1426
     28 O         138.9235  139.3660  158.5280 O.3     1  UNL1       -0.4538
     29 C         138.7128  139.2062  160.0046 C.ar    1  UNL1        0.1453
     30 C         137.8444  140.1775  160.7477 C.ar    1  UNL1        0.0375
     31 C         137.6337  140.0177  162.2242 C.ar    1  UNL1        0.0031
     32 C         138.2914  138.8865  162.9575 C.ar    1  UNL1        0.0002
     33 C         139.1598  137.9152  162.2144 C.ar    1  UNL1        0.0031
     34 C         139.3705  138.0750  160.7379 C.ar    1  UNL1        0.0375
@<TRIPOS>BOND
     1     1     2    2
     2     2    14    1
     3    14    15   ar
     4    15    16   ar
     5    16    17   ar
     6    17    18    1
     7    17    19   ar
     8    19    20   ar
     9     2     3   am
    10     3     4    1
    11     4     5    1
    12     5     6    1
    13     6     7    1
    14     7     8    1
    15     8     9    1
    16     9    21    1
    17    21    22    1
    18    22    23   ar
    19    23    24   ar
    20    24    25   ar
    21    25    26   ar
    22    26    27   ar
    23    27    28    1
    24    28    29    1
    25    29    30   ar
    26    30    31   ar
    27    31    32   ar
    28    32    33   ar
    29    33    34   ar
    30     9    10    1
    31    10    11    1
    32     6    12    1
    33    12    13    1
    34    20    14   ar
    35    13     3    1
    36    11     6    1
    37    27    22   ar
    38    34    29   ar
@<TRIPOS>MOLECULE
*****
 34 38 0 0 0
SMALL
GASTEIGER

@<TRIPOS>ATOM
      1 O         145.1470  138.1266  155.6728 O.2     1  UNL1       -0.2699
      2 C         143.7778  137.5886  155.9658 C.2     1  UNL1        0.2490
      3 N         142.8254  138.3815  156.8110 N.am    1  UNL1       -0.2761
      4 C         143.2423  139.7124  157.3632 C.3     1  UNL1        0.0937
      5 C         142.2900  140.5053  158.2083 C.3     1  UNL1        0.0217
      6 C         140.9208  139.9673  158.5014 C.3     1  UNL1        0.0060
      7 C         141.3376  141.2983  159.0535 C.3     1  UNL1        0.0175
      8 C         140.3853  142.0912  159.8987 C.3     1  UNL1        0.0724
      9 N         139.0161  141.5532  160.1917 N.3     1  UNL1       -0.2689
     10 C         138.5992  140.2223  159.6396 C.3     1  UNL1        0.0724
     11 C         139.5516  139.4294  158.7944 C.3     1  UNL1        0.0175
     12 C         140.5039  138.6365  157.9492 C.3     1  UNL1        0.0217
     13 C         141.4562  137.8436  157.1041 C.3     1  UNL1        0.0937
     14 C         143.3609  136.2577  155.4137 C.ar    1  UNL1        0.0536
     15 C         142.5850  136.1872  154.1319 C.ar    1  UNL1        0.0054
     16 C         142.1682  134.8562  153.5797 C.ar    1  UNL1        0.0115
     17 C         142.5271  133.5958  154.3094 C.ar    1  UNL1        0.0577
     18 CL        142.1103  132.2649  153.7573 Cl      1  UNL1       -0.0822
     19 C         143.3030  133.6663  155.5913 C.ar    1  UNL1        0.0115
     20 C         143.7199  134.9972  156.1434 C.ar    1  UNL1        0.0054
     21 C         138.0637  142.3462  161.0369 C.3     1  UNL1        0.1022
     22 C         138.4866  142.8270  162.3934 C.ar    1  UNL1        0.0284
     23 C         138.8734  144.2624  162.5934 C.ar    1  UNL1        0.0001
     24 C         139.2963  144.7432  163.9498 C.ar    1  UNL1       -0.0001
     25 C         139.3323  143.7886  165.1063 C.ar    1  UNL1        0.0031
     26 C         138.9455  142.3532  164.9063 C.ar    1  UNL1        0.0372
     27 C         138.5226  141.8724  163.5498 C.ar    1  UNL1        0.1426
     28 O         138.1358  140.4370  163.3498 O.3     1  UNL1       -0.4538
     29 C         139.1580  139.3533  163.5252 C.ar    1  UNL1        0.1453
     30 C         138.9601  138.2980  164.5727 C.ar    1  UNL1        0.0375
     31 C         139.9823  137.2144  164.7481 C.ar    1  UNL1        0.0031
     32 C         141.2025  137.1861  163.8761 C.ar    1  UNL1        0.0002
     33 C         141.4004  138.2414  162.8286 C.ar    1  UNL1        0.0031
     34 C         140.3782  139.3250  162.6532 C.ar    1  UNL1        0.0375
@<TRIPOS>BOND
     1     1     2    2
     2     2    14    1
     3    14    15   ar
     4    15    16   ar
     5    16    17   ar
     6    17    18    1
     7    17    19   ar
     8    19    20   ar
     9     2     3   am
    10     3     4    1
    11     4     5    1
    12     5     6    1
    13     6     7    1
    14     7     8    1
    15     8     9    1
    16     9    21    1
    17    21    22    1
    18    22    23   ar
    19    23    24   ar
    20    24    25   ar
    21    25    26   ar
    22    26    27   ar
    23    27    28    1
    24    28    29    1
    25    29    30   ar
    26    30    31   ar
    27    31    32   ar
    28    32    33   ar
    29    33    34   ar
    30     9    10    1
    31    10    11    1
    32     6    12    1
    33    12    13    1
    34    20    14   ar
    35    13     3    1
    36    11     6    1
    37    27    22   ar
    38    34    29   ar
