@<TRIPOS>MOLECULE
*****
 36 39 0 0 0
SMALL
GASTEIGER

@<TRIPOS>ATOM
      1 C         140.7544  138.5953  161.6723 C.3     1  UNL1        0.1753
      2 C         141.1820  138.4078  160.2468 C.ar    1  UNL1        0.0089
      3 C         142.4889  137.9955  159.6369 C.ar    1  UNL1       -0.0021
      4 C         142.6215  137.8923  158.1464 C.ar    1  UNL1       -0.0003
      5 C         141.4473  138.2015  157.2657 C.ar    1  UNL1        0.0001
      6 C         140.1404  138.6138  157.8756 C.ar    1  UNL1        0.0043
      7 C         140.0077  138.7169  159.3661 C.ar    1  UNL1        0.0516
      8 C         138.8544  139.0954  160.2474 C.2     1  UNL1        0.2495
      9 O         137.4808  139.4814  159.7845 O.2     1  UNL1       -0.2699
     10 N         139.3158  139.0203  161.6727 N.am    1  UNL1       -0.2603
     11 O         141.3365  137.2540  163.8198 O.2     1  UNL1       -0.2729
     12 C         141.6143  138.3932  162.8846 C.2     1  UNL1        0.2452
     13 N         142.7523  139.3305  163.1616 N.am    1  UNL1       -0.2988
     14 H         142.9347  140.0782  162.5477 H       1  UNL1        0.1498
     15 C         143.6123  139.1284  164.3738 C.3     1  UNL1        0.1164
     16 C         143.2466  139.7871  165.6709 C.ar    1  UNL1       -0.0024
     17 C         142.8848  138.9496  166.8616 C.ar    1  UNL1        0.0005
     18 C         142.5192  139.6083  168.1586 C.ar    1  UNL1        0.0369
     19 C         142.5153  141.1046  168.2651 C.ar    1  UNL1        0.1468
     20 C         142.8771  141.9421  167.0744 C.ar    1  UNL1        0.0369
     21 C         143.2428  141.2833  165.7773 C.ar    1  UNL1        0.0005
     22 O         142.1497  141.7632  169.5621 O.3     1  UNL1       -0.4045
     23 C         141.2781  142.9840  169.5639 C.3     1  UNL1        0.5753
     24 F         140.4065  144.2048  169.5657 F       1  UNL1       -0.1328
     25 F         142.3644  143.7586  170.2494 F       1  UNL1       -0.1328
     26 F         140.1918  142.2095  168.8784 F       1  UNL1       -0.1328
     27 C         138.4847  139.3178  162.8854 C.3     1  UNL1        0.1670
     28 C         138.5701  140.6641  163.5412 C.3     1  UNL1        0.3162
     29 F         137.5631  141.2020  162.5683 F       1  UNL1       -0.1961
     30 F         139.5771  140.1263  164.5141 F       1  UNL1       -0.1961
     31 C         138.6555  142.0105  164.1971 C.ar    1  UNL1        0.1208
     32 C         139.6507  142.2486  165.2939 C.ar    1  UNL1        0.0202
     33 C         139.7361  143.5949  165.9499 C.ar    1  UNL1        0.0030
     34 C         138.8264  144.7031  165.5089 C.ar    1  UNL1        0.0207
     35 C         137.8312  144.4649  164.4121 C.ar    1  UNL1        0.0986
     36 N         137.7458  143.1186  163.7562 N.ar    1  UNL1       -0.2428
@<TRIPOS>BOND
     1    11    12    2
     2    12    13   am
     3    13    15    1
     4    15    16    1
     5    16    17   ar
     6    17    18   ar
     7    18    19   ar
     8    19    22    1
     9    22    23    1
    10    23    24    1
    11    23    25    1
    12    23    26    1
    13    19    20   ar
    14    20    21   ar
    15    12     1    1
    16     1     2    1
    17     2     3   ar
    18     3     4   ar
    19     4     5   ar
    20     5     6   ar
    21     6     7   ar
    22     7     8    1
    23     8     9    2
    24     8    10   am
    25    10    27    1
    26    27    28    1
    27    28    29    1
    28    28    30    1
    29    28    31    1
    30    31    32   ar
    31    32    33   ar
    32    33    34   ar
    33    34    35   ar
    34    35    36   ar
    35    21    16   ar
    36    10     1    1
    37    36    31   ar
    38     7     2   ar
    39    13    14    1
@<TRIPOS>MOLECULE
*****
 36 39 0 0 0
SMALL
GASTEIGER

@<TRIPOS>ATOM
      1 C         139.9305  138.8921  159.9765 C.3     1  UNL1        0.1753
      2 C         140.6556  138.7497  158.6712 C.ar    1  UNL1        0.0089
      3 C         141.9957  138.1713  158.3253 C.ar    1  UNL1       -0.0021
      4 C         142.4657  138.1672  156.9009 C.ar    1  UNL1       -0.0003
      5 C         141.5958  138.7415  155.8224 C.ar    1  UNL1        0.0001
      6 C         140.2557  139.3200  156.1682 C.ar    1  UNL1        0.0043
      7 C         139.7857  139.3241  157.5926 C.ar    1  UNL1        0.0516
      8 C         138.5229  139.8214  158.2314 C.2     1  UNL1        0.2495
      9 O         137.3726  140.4716  157.5214 O.2     1  UNL1       -0.2699
     10 N         138.6124  139.5545  159.7047 N.am    1  UNL1       -0.2603
     11 O         141.8116  138.8402  161.7678 O.2     1  UNL1       -0.2729
     12 C         140.4350  138.4498  161.3181 C.2     1  UNL1        0.2452
     13 N         139.5626  137.6170  162.2101 N.am    1  UNL1       -0.2988
     14 H         138.6590  137.3608  161.9150 H       1  UNL1        0.1498
     15 C         140.0671  137.1747  163.5517 C.3     1  UNL1        0.1164
     16 C         139.9334  138.0812  164.7393 C.ar    1  UNL1       -0.0024
     17 C         141.1086  138.8912  165.2006 C.ar    1  UNL1        0.0005
     18 C         140.9749  139.7977  166.3882 C.ar    1  UNL1        0.0369
     19 C         139.6660  139.8942  167.1145 C.ar    1  UNL1        0.1468
     20 C         138.4908  139.0842  166.6533 C.ar    1  UNL1        0.0369
     21 C         138.6245  138.1777  165.4656 C.ar    1  UNL1        0.0005
     22 O         139.5324  140.8007  168.3021 O.3     1  UNL1       -0.4045
     23 C         139.6890  140.2491  169.6882 C.3     1  UNL1        0.5753
     24 F         139.8457  139.6975  171.0742 F       1  UNL1       -0.1328
     25 F         138.1975  140.1661  169.8237 F       1  UNL1       -0.1328
     26 F         141.1806  140.3322  169.5527 F       1  UNL1       -0.1328
     27 C         137.5673  139.8908  160.7268 C.3     1  UNL1        0.1670
     28 C         137.8029  141.0066  161.7012 C.3     1  UNL1        0.3162
     29 F         137.5795  140.0579  162.8415 F       1  UNL1       -0.1961
     30 F         138.0263  141.9552  160.5610 F       1  UNL1       -0.1961
     31 C         138.0385  142.1224  162.6757 C.ar    1  UNL1        0.1208
     32 C         138.4397  141.8130  164.0875 C.ar    1  UNL1        0.0202
     33 C         138.6753  142.9289  165.0619 C.ar    1  UNL1        0.0030
     34 C         138.5097  144.3541  164.6245 C.ar    1  UNL1        0.0207
     35 C         138.1085  144.6634  163.2126 C.ar    1  UNL1        0.0986
     36 N         137.8729  143.5476  162.2382 N.ar    1  UNL1       -0.2428
@<TRIPOS>BOND
     1    11    12    2
     2    12    13   am
     3    13    15    1
     4    15    16    1
     5    16    17   ar
     6    17    18   ar
     7    18    19   ar
     8    19    22    1
     9    22    23    1
    10    23    24    1
    11    23    25    1
    12    23    26    1
    13    19    20   ar
    14    20    21   ar
    15    12     1    1
    16     1     2    1
    17     2     3   ar
    18     3     4   ar
    19     4     5   ar
    20     5     6   ar
    21     6     7   ar
    22     7     8    1
    23     8     9    2
    24     8    10   am
    25    10    27    1
    26    27    28    1
    27    28    29    1
    28    28    30    1
    29    28    31    1
    30    31    32   ar
    31    32    33   ar
    32    33    34   ar
    33    34    35   ar
    34    35    36   ar
    35    21    16   ar
    36    10     1    1
    37    36    31   ar
    38     7     2   ar
    39    13    14    1
@<TRIPOS>MOLECULE
*****
 36 39 0 0 0
SMALL
GASTEIGER

@<TRIPOS>ATOM
      1 C         142.0149  143.8320  161.2929 C.3     1  UNL1        0.1753
      2 C         141.9645  144.1814  159.8350 C.ar    1  UNL1        0.0089
      3 C         142.7735  143.7128  158.6621 C.ar    1  UNL1       -0.0021
      4 C         142.4883  144.2510  157.2913 C.ar    1  UNL1       -0.0003
      5 C         141.3941  145.2577  157.0935 C.ar    1  UNL1        0.0001
      6 C         140.5851  145.7263  158.2664 C.ar    1  UNL1        0.0043
      7 C         140.8702  145.1881  159.6372 C.ar    1  UNL1        0.0516
      8 C         140.2445  145.4610  160.9728 C.2     1  UNL1        0.2495
      9 O         139.1103  146.4060  161.2385 O.2     1  UNL1       -0.2699
     10 N         140.9519  144.6229  161.9961 N.am    1  UNL1       -0.2603
     11 O         144.3460  143.3022  162.3104 O.2     1  UNL1       -0.2729
     12 C         142.9621  142.8621  161.9348 C.2     1  UNL1        0.2452
     13 N         142.5254  141.4520  162.2012 N.am    1  UNL1       -0.2988
     14 H         141.6171  141.1631  161.9547 H       1  UNL1        0.1498
     15 C         143.4726  140.4821  162.8431 C.3     1  UNL1        0.1164
     16 C         143.3262  140.1412  164.2965 C.ar    1  UNL1       -0.0024
     17 C         143.3203  141.2322  165.3259 C.ar    1  UNL1        0.0005
     18 C         143.1738  140.8912  166.7793 C.ar    1  UNL1        0.0369
     19 C         143.0332  139.4592  167.2033 C.ar    1  UNL1        0.1468
     20 C         143.0391  138.3682  166.1739 C.ar    1  UNL1        0.0369
     21 C         143.1856  138.7092  164.7204 C.ar    1  UNL1        0.0005
     22 O         142.8868  139.1183  168.6566 O.3     1  UNL1       -0.4045
     23 C         142.2268  140.0879  169.5917 C.3     1  UNL1        0.5753
     24 F         141.5669  141.0575  170.5267 F       1  UNL1       -0.1328
     25 F         143.5466  140.7618  169.8243 F       1  UNL1       -0.1328
     26 F         140.9071  139.4140  169.3591 F       1  UNL1       -0.1328
     27 C         140.6494  144.5827  163.4648 C.3     1  UNL1        0.1670
     28 C         140.3154  143.2786  164.1263 C.3     1  UNL1        0.3162
     29 F         139.5065  142.8781  162.9283 F       1  UNL1       -0.1961
     30 F         141.1242  143.6791  165.3243 F       1  UNL1       -0.1961
     31 C         139.9813  141.9744  164.7879 C.ar    1  UNL1        0.1208
     32 C         139.7793  141.9170  166.2731 C.ar    1  UNL1        0.0202
     33 C         139.4453  140.6128  166.9347 C.ar    1  UNL1        0.0030
     34 C         139.3132  139.3662  166.1110 C.ar    1  UNL1        0.0207
     35 C         139.5152  139.4237  164.6258 C.ar    1  UNL1        0.0986
     36 N         139.8493  140.7278  163.9642 N.ar    1  UNL1       -0.2428
@<TRIPOS>BOND
     1    11    12    2
     2    12    13   am
     3    13    15    1
     4    15    16    1
     5    16    17   ar
     6    17    18   ar
     7    18    19   ar
     8    19    22    1
     9    22    23    1
    10    23    24    1
    11    23    25    1
    12    23    26    1
    13    19    20   ar
    14    20    21   ar
    15    12     1    1
    16     1     2    1
    17     2     3   ar
    18     3     4   ar
    19     4     5   ar
    20     5     6   ar
    21     6     7   ar
    22     7     8    1
    23     8     9    2
    24     8    10   am
    25    10    27    1
    26    27    28    1
    27    28    29    1
    28    28    30    1
    29    28    31    1
    30    31    32   ar
    31    32    33   ar
    32    33    34   ar
    33    34    35   ar
    34    35    36   ar
    35    21    16   ar
    36    10     1    1
    37    36    31   ar
    38     7     2   ar
    39    13    14    1
@<TRIPOS>MOLECULE
*****
 36 39 0 0 0
SMALL
GASTEIGER

@<TRIPOS>ATOM
      1 C         143.5664  140.2816  160.8939 C.3     1  UNL1        0.1753
      2 C         143.9133  140.9584  159.6009 C.ar    1  UNL1        0.0089
      3 C         144.5045  142.3035  159.2992 C.ar    1  UNL1       -0.0021
      4 C         144.7433  142.7158  157.8769 C.ar    1  UNL1       -0.0003
      5 C         144.3909  141.7830  156.7564 C.ar    1  UNL1        0.0001
      6 C         143.7996  140.4379  157.0581 C.ar    1  UNL1        0.0043
      7 C         143.5608  140.0256  158.4804 C.ar    1  UNL1        0.0516
      8 C         142.9961  138.7724  159.0808 C.2     1  UNL1        0.2495
      9 O         142.5128  137.5717  158.3226 O.2     1  UNL1       -0.2699
     10 N         142.9995  138.9306  160.5724 N.am    1  UNL1       -0.2603
     11 O         145.0657  140.6929  162.9754 O.2     1  UNL1       -0.2729
     12 C         143.7535  140.8552  162.2672 C.2     1  UNL1        0.2452
     13 N         142.6283  141.5913  162.9323 N.am    1  UNL1       -0.2988
     14 H         141.7670  141.6979  162.4674 H       1  UNL1        0.1498
     15 C         142.8154  142.1649  164.3056 C.3     1  UNL1        0.1164
     16 C         142.0866  141.5685  165.4731 C.ar    1  UNL1       -0.0024
     17 C         140.9712  142.3277  166.1283 C.ar    1  UNL1        0.0005
     18 C         140.2424  141.7312  167.2958 C.ar    1  UNL1        0.0369
     19 C         140.6291  140.3754  167.8082 C.ar    1  UNL1        0.1468
     20 C         141.7446  139.6162  167.1530 C.ar    1  UNL1        0.0369
     21 C         142.4734  140.2128  165.9854 C.ar    1  UNL1        0.0005
     22 O         139.9004  139.7790  168.9757 O.3     1  UNL1       -0.4045
     23 C         140.2606  140.1881  170.3732 C.3     1  UNL1        0.5753
     24 F         140.6207  140.5972  171.7706 F       1  UNL1       -0.1328
     25 F         141.3108  139.1180  170.4157 F       1  UNL1       -0.1328
     26 F         139.2103  141.2582  170.3306 F       1  UNL1       -0.1328
     27 C         142.5203  137.9159  161.5678 C.3     1  UNL1        0.1670
     28 C         141.4200  138.2661  162.5252 C.3     1  UNL1        0.3162
     29 F         140.5563  138.6944  161.3760 F       1  UNL1       -0.1961
     30 F         142.2836  137.8378  163.6744 F       1  UNL1       -0.1961
     31 C         140.3197  138.6163  163.4827 C.ar    1  UNL1        0.1208
     32 C         139.9061  137.6367  164.5407 C.ar    1  UNL1        0.0202
     33 C         138.8058  137.9869  165.4982 C.ar    1  UNL1        0.0030
     34 C         138.1191  139.3167  165.3977 C.ar    1  UNL1        0.0207
     35 C         138.5327  140.2963  164.3396 C.ar    1  UNL1        0.0986
     36 N         139.6330  139.9461  163.3822 N.ar    1  UNL1       -0.2428
@<TRIPOS>BOND
     1    11    12    2
     2    12    13   am
     3    13    15    1
     4    15    16    1
     5    16    17   ar
     6    17    18   ar
     7    18    19   ar
     8    19    22    1
     9    22    23    1
    10    23    24    1
    11    23    25    1
    12    23    26    1
    13    19    20   ar
    14    20    21   ar
    15    12     1    1
    16     1     2    1
    17     2     3   ar
    18     3     4   ar
    19     4     5   ar
    20     5     6   ar
    21     6     7   ar
    22     7     8    1
    23     8     9    2
    24     8    10   am
    25    10    27    1
    26    27    28    1
    27    28    29    1
    28    28    30    1
    29    28    31    1
    30    31    32   ar
    31    32    33   ar
    32    33    34   ar
    33    34    35   ar
    34    35    36   ar
    35    21    16   ar
    36    10     1    1
    37    36    31   ar
    38     7     2   ar
    39    13    14    1
@<TRIPOS>MOLECULE
*****
 36 39 0 0 0
SMALL
GASTEIGER

@<TRIPOS>ATOM
      1 C         143.0135  139.9190  161.4748 C.3     1  UNL1        0.1753
      2 C         142.9507  139.3227  160.0998 C.ar    1  UNL1        0.0089
      3 C         142.6076  137.9441  159.6184 C.ar    1  UNL1       -0.0021
      4 C         142.6303  137.6350  158.1508 C.ar    1  UNL1       -0.0003
      5 C         142.9962  138.7044  157.1646 C.ar    1  UNL1        0.0001
      6 C         143.3393  140.0829  157.6461 C.ar    1  UNL1        0.0043
      7 C         143.3166  140.3921  159.1137 C.ar    1  UNL1        0.0516
      8 C         143.6055  141.6493  159.8792 C.2     1  UNL1        0.2495
      9 O         144.0107  142.9674  159.2890 O.2     1  UNL1       -0.2699
     10 N         143.4183  141.3569  161.3384 N.am    1  UNL1       -0.2603
     11 O         143.8386  138.5625  163.5312 O.2     1  UNL1       -0.2729
     12 C         142.7227  139.2030  162.7604 C.2     1  UNL1        0.2452
     13 N         141.3158  139.1276  163.2752 N.am    1  UNL1       -0.2988
     14 H         140.5833  139.5480  162.7693 H       1  UNL1        0.1498
     15 C         141.0249  138.4116  164.5608 C.3     1  UNL1        0.1164
     16 C         141.0202  139.1681  165.8560 C.ar    1  UNL1       -0.0024
     17 C         139.7214  139.6151  166.4589 C.ar    1  UNL1        0.0005
     18 C         139.7168  140.3716  167.7541 C.ar    1  UNL1        0.0369
     19 C         141.0109  140.6813  168.4465 C.ar    1  UNL1        0.1468
     20 C         142.3097  140.2343  167.8437 C.ar    1  UNL1        0.0369
     21 C         142.3143  139.4777  166.5484 C.ar    1  UNL1        0.0005
     22 O         141.0062  141.4378  169.7417 O.3     1  UNL1       -0.4045
     23 C         140.6428  142.8930  169.7591 C.3     1  UNL1        0.5753
     24 F         140.2794  144.3482  169.7764 F       1  UNL1       -0.1328
     25 F         141.9843  143.2349  169.1817 F       1  UNL1       -0.1328
     26 F         139.3012  142.5511  170.3364 F       1  UNL1       -0.1328
     27 C         143.6032  142.3313  162.4637 C.3     1  UNL1        0.1670
     28 C         142.4083  142.8741  163.1899 C.3     1  UNL1        0.3162
     29 F         142.7511  142.0325  164.3832 F       1  UNL1       -0.1961
     30 F         142.0654  143.7157  161.9966 F       1  UNL1       -0.1961
     31 C         141.2132  143.4169  163.9160 C.ar    1  UNL1        0.1208
     32 C         140.9958  143.0780  165.3610 C.ar    1  UNL1        0.0202
     33 C         139.8008  143.6209  166.0871 C.ar    1  UNL1        0.0030
     34 C         138.8231  144.5026  165.3683 C.ar    1  UNL1        0.0207
     35 C         139.0405  144.8415  163.9233 C.ar    1  UNL1        0.0986
     36 N         140.2355  144.2987  163.1972 N.ar    1  UNL1       -0.2428
@<TRIPOS>BOND
     1    11    12    2
     2    12    13   am
     3    13    15    1
     4    15    16    1
     5    16    17   ar
     6    17    18   ar
     7    18    19   ar
     8    19    22    1
     9    22    23    1
    10    23    24    1
    11    23    25    1
    12    23    26    1
    13    19    20   ar
    14    20    21   ar
    15    12     1    1
    16     1     2    1
    17     2     3   ar
    18     3     4   ar
    19     4     5   ar
    20     5     6   ar
    21     6     7   ar
    22     7     8    1
    23     8     9    2
    24     8    10   am
    25    10    27    1
    26    27    28    1
    27    28    29    1
    28    28    30    1
    29    28    31    1
    30    31    32   ar
    31    32    33   ar
    32    33    34   ar
    33    34    35   ar
    34    35    36   ar
    35    21    16   ar
    36    10     1    1
    37    36    31   ar
    38     7     2   ar
    39    13    14    1
@<TRIPOS>MOLECULE
*****
 36 39 0 0 0
SMALL
GASTEIGER

@<TRIPOS>ATOM
      1 C         139.9907  144.0144  160.3637 C.3     1  UNL1        0.1753
      2 C         140.4734  144.4894  159.0253 C.ar    1  UNL1        0.0089
      3 C         141.5120  145.4981  158.6330 C.ar    1  UNL1       -0.0021
      4 C         141.7840  145.7693  157.1831 C.ar    1  UNL1       -0.0003
      5 C         141.0174  145.0320  156.1254 C.ar    1  UNL1        0.0001
      6 C         139.9789  144.0233  156.5177 C.ar    1  UNL1        0.0043
      7 C         139.7069  143.7520  157.9676 C.ar    1  UNL1        0.0516
      8 C         138.7504  142.8213  158.6524 C.2     1  UNL1        0.2495
      9 O         137.7875  141.8916  157.9752 O.2     1  UNL1       -0.2699
     10 N         138.9257  142.9834  160.1333 N.am    1  UNL1       -0.2603
     11 O         139.9455  145.7538  162.2930 O.2     1  UNL1       -0.2729
     12 C         140.4859  144.4873  161.6983 C.2     1  UNL1        0.2452
     13 N         141.5216  143.6936  162.4382 N.am    1  UNL1       -0.2988
     14 H         141.8763  142.8623  162.0479 H       1  UNL1        0.1498
     15 C         142.0169  144.1665  163.7728 C.3     1  UNL1        0.1164
     16 C         141.7947  143.3268  164.9957 C.ar    1  UNL1       -0.0024
     17 C         140.4099  143.1548  165.5460 C.ar    1  UNL1        0.0005
     18 C         140.1878  142.3151  166.7689 C.ar    1  UNL1        0.0369
     19 C         141.3504  141.6473  167.4416 C.ar    1  UNL1        0.1468
     20 C         142.7352  141.8194  166.8913 C.ar    1  UNL1        0.0369
     21 C         142.9573  142.6591  165.6683 C.ar    1  UNL1        0.0005
     22 O         141.1282  140.8077  168.6645 O.3     1  UNL1       -0.4045
     23 C         139.7962  140.8244  169.3539 C.3     1  UNL1        0.5753
     24 F         138.4641  140.8411  170.0433 F       1  UNL1       -0.1328
     25 F         140.2316  142.0076  170.1665 F       1  UNL1       -0.1328
     26 F         139.3607  139.6411  168.5413 F       1  UNL1       -0.1328
     27 C         138.1691  142.2444  161.1969 C.3     1  UNL1        0.1670
     28 C         138.9056  141.3865  162.1825 C.3     1  UNL1        0.3162
     29 F         139.6663  140.7481  161.0584 F       1  UNL1       -0.1961
     30 F         138.1450  142.0250  163.3066 F       1  UNL1       -0.1961
     31 C         139.6422  140.5286  163.1682 C.ar    1  UNL1        0.1208
     32 C         138.8884  139.8117  164.2488 C.ar    1  UNL1        0.0202
     33 C         139.6250  138.9538  165.2346 C.ar    1  UNL1        0.0030
     34 C         141.1153  138.8129  165.1396 C.ar    1  UNL1        0.0207
     35 C         141.8691  139.5299  164.0589 C.ar    1  UNL1        0.0986
     36 N         141.1325  140.3877  163.0732 N.ar    1  UNL1       -0.2428
@<TRIPOS>BOND
     1    11    12    2
     2    12    13   am
     3    13    15    1
     4    15    16    1
     5    16    17   ar
     6    17    18   ar
     7    18    19   ar
     8    19    22    1
     9    22    23    1
    10    23    24    1
    11    23    25    1
    12    23    26    1
    13    19    20   ar
    14    20    21   ar
    15    12     1    1
    16     1     2    1
    17     2     3   ar
    18     3     4   ar
    19     4     5   ar
    20     5     6   ar
    21     6     7   ar
    22     7     8    1
    23     8     9    2
    24     8    10   am
    25    10    27    1
    26    27    28    1
    27    28    29    1
    28    28    30    1
    29    28    31    1
    30    31    32   ar
    31    32    33   ar
    32    33    34   ar
    33    34    35   ar
    34    35    36   ar
    35    21    16   ar
    36    10     1    1
    37    36    31   ar
    38     7     2   ar
    39    13    14    1
@<TRIPOS>MOLECULE
*****
 36 39 0 0 0
SMALL
GASTEIGER

@<TRIPOS>ATOM
      1 C         141.9415  137.8117  157.8119 C.3     1  UNL1        0.1753
      2 C         142.2429  136.7942  156.7517 C.ar    1  UNL1        0.0089
      3 C         143.4953  136.0438  156.4078 C.ar    1  UNL1       -0.0021
      4 C         143.4960  135.0681  155.2686 C.ar    1  UNL1       -0.0003
      5 C         142.2443  134.8427  154.4733 C.ar    1  UNL1        0.0001
      6 C         140.9919  135.5931  154.8172 C.ar    1  UNL1        0.0043
      7 C         140.9912  136.5689  155.9564 C.ar    1  UNL1        0.0516
      8 C         139.9163  137.4471  156.5251 C.2     1  UNL1        0.2495
      9 O         138.5023  137.5407  156.0334 O.2     1  UNL1       -0.2699
     10 N         140.5036  138.2152  157.6719 N.am    1  UNL1       -0.2603
     11 O         143.8533  139.4419  158.4732 O.2     1  UNL1       -0.2729
     12 C         142.9084  138.3339  158.8329 C.2     1  UNL1        0.2452
     13 N         142.9303  137.7482  160.2137 N.am    1  UNL1       -0.2988
     14 H         142.3101  137.0210  160.4498 H       1  UNL1        0.1498
     15 C         143.8972  138.2704  161.2347 C.3     1  UNL1        0.1164
     16 C         143.4198  139.1935  162.3164 C.ar    1  UNL1       -0.0024
     17 C         143.4959  138.7683  163.7528 C.ar    1  UNL1        0.0005
     18 C         143.0185  139.6914  164.8344 C.ar    1  UNL1        0.0369
     19 C         142.4650  141.0397  164.4797 C.ar    1  UNL1        0.1468
     20 C         142.3889  141.4648  163.0432 C.ar    1  UNL1        0.0369
     21 C         142.8663  140.5417  161.9615 C.ar    1  UNL1        0.0005
     22 O         141.9876  141.9627  165.5614 O.3     1  UNL1       -0.4045
     23 C         142.8849  142.2905  166.7178 C.3     1  UNL1        0.5753
     24 F         143.7823  142.6183  167.8742 F       1  UNL1       -0.1328
     25 F         141.9199  141.6266  167.6548 F       1  UNL1       -0.1328
     26 F         143.8499  142.9544  165.7808 F       1  UNL1       -0.1328
     27 C         139.7801  139.2118  158.5282 C.3     1  UNL1        0.1670
     28 C         139.7230  139.0217  160.0150 C.3     1  UNL1        0.3162
     29 F         139.2059  137.6277  159.8169 F       1  UNL1       -0.1961
     30 F         140.2402  140.4157  160.2131 F       1  UNL1       -0.1961
     31 C         139.6660  138.8316  161.5018 C.ar    1  UNL1        0.1208
     32 C         139.0570  139.8919  162.3707 C.ar    1  UNL1        0.0202
     33 C         138.9999  139.7018  163.8575 C.ar    1  UNL1        0.0030
     34 C         139.5518  138.4514  164.4755 C.ar    1  UNL1        0.0207
     35 C         140.1608  137.3911  163.6066 C.ar    1  UNL1        0.0986
     36 N         140.2179  137.5812  162.1198 N.ar    1  UNL1       -0.2428
@<TRIPOS>BOND
     1    11    12    2
     2    12    13   am
     3    13    15    1
     4    15    16    1
     5    16    17   ar
     6    17    18   ar
     7    18    19   ar
     8    19    22    1
     9    22    23    1
    10    23    24    1
    11    23    25    1
    12    23    26    1
    13    19    20   ar
    14    20    21   ar
    15    12     1    1
    16     1     2    1
    17     2     3   ar
    18     3     4   ar
    19     4     5   ar
    20     5     6   ar
    21     6     7   ar
    22     7     8    1
    23     8     9    2
    24     8    10   am
    25    10    27    1
    26    27    28    1
    27    28    29    1
    28    28    30    1
    29    28    31    1
    30    31    32   ar
    31    32    33   ar
    32    33    34   ar
    33    34    35   ar
    34    35    36   ar
    35    21    16   ar
    36    10     1    1
    37    36    31   ar
    38     7     2   ar
    39    13    14    1
@<TRIPOS>MOLECULE
*****
 36 39 0 0 0
SMALL
GASTEIGER

@<TRIPOS>ATOM
      1 C         140.9313  140.0550  166.2512 C.3     1  UNL1        0.1753
      2 C         140.7911  140.6950  167.6006 C.ar    1  UNL1        0.0089
      3 C         141.6467  141.6830  168.3366 C.ar    1  UNL1       -0.0021
      4 C         141.2440  142.1523  169.7031 C.ar    1  UNL1       -0.0003
      5 C         139.9856  141.6336  170.3337 C.ar    1  UNL1        0.0001
      6 C         139.1301  140.6456  169.5977 C.ar    1  UNL1        0.0043
      7 C         139.5328  140.1763  168.2311 C.ar    1  UNL1        0.0516
      8 C         138.8954  139.2157  167.2714 C.2     1  UNL1        0.2495
      9 O         137.6178  138.4624  167.4960 O.2     1  UNL1       -0.2699
     10 N         139.7597  139.1408  166.0478 N.am    1  UNL1       -0.2603
     11 O         142.1521  141.5998  164.5562 O.2     1  UNL1       -0.2729
     12 C         142.0473  140.2883  165.2765 C.2     1  UNL1        0.2452
     13 N         143.0586  139.2100  165.0220 N.am    1  UNL1       -0.2988
     14 H         142.9898  138.3491  165.4947 H       1  UNL1        0.1498
     15 C         144.1746  139.4433  164.0472 C.3     1  UNL1        0.1164
     16 C         143.9252  139.3047  162.5746 C.ar    1  UNL1       -0.0024
     17 C         143.5385  137.9736  162.0013 C.ar    1  UNL1        0.0005
     18 C         143.2892  137.8351  160.5287 C.ar    1  UNL1        0.0369
     19 C         143.4266  139.0276  159.6293 C.ar    1  UNL1        0.1468
     20 C         143.8133  140.3587  160.2025 C.ar    1  UNL1        0.0369
     21 C         144.0626  140.4973  161.6752 C.ar    1  UNL1        0.0005
     22 O         143.1772  138.8890  158.1567 O.3     1  UNL1       -0.4045
     23 C         142.2033  137.8650  157.6539 C.3     1  UNL1        0.5753
     24 F         141.2294  136.8409  157.1512 F       1  UNL1       -0.1328
     25 F         143.3392  137.0559  157.1016 F       1  UNL1       -0.1328
     26 F         141.0675  138.6740  158.2063 F       1  UNL1       -0.1328
     27 C         139.4982  138.2993  164.8338 C.3     1  UNL1        0.1670
     28 C         139.3402  138.9488  163.4910 C.3     1  UNL1        0.3162
     29 F         140.3985  138.0460  162.9299 F       1  UNL1       -0.1961
     30 F         138.2819  139.8515  164.0521 F       1  UNL1       -0.1961
     31 C         139.1821  139.5982  162.1481 C.ar    1  UNL1        0.1208
     32 C         140.2850  140.4494  161.5922 C.ar    1  UNL1        0.0202
     33 C         140.1269  141.0989  160.2493 C.ar    1  UNL1        0.0030
     34 C         138.8659  140.8971  159.4624 C.ar    1  UNL1        0.0207
     35 C         137.7630  140.0459  160.0184 C.ar    1  UNL1        0.0986
     36 N         137.9212  139.3964  161.3612 N.ar    1  UNL1       -0.2428
@<TRIPOS>BOND
     1    11    12    2
     2    12    13   am
     3    13    15    1
     4    15    16    1
     5    16    17   ar
     6    17    18   ar
     7    18    19   ar
     8    19    22    1
     9    22    23    1
    10    23    24    1
    11    23    25    1
    12    23    26    1
    13    19    20   ar
    14    20    21   ar
    15    12     1    1
    16     1     2    1
    17     2     3   ar
    18     3     4   ar
    19     4     5   ar
    20     5     6   ar
    21     6     7   ar
    22     7     8    1
    23     8     9    2
    24     8    10   am
    25    10    27    1
    26    27    28    1
    27    28    29    1
    28    28    30    1
    29    28    31    1
    30    31    32   ar
    31    32    33   ar
    32    33    34   ar
    33    34    35   ar
    34    35    36   ar
    35    21    16   ar
    36    10     1    1
    37    36    31   ar
    38     7     2   ar
    39    13    14    1
@<TRIPOS>MOLECULE
*****
 36 39 0 0 0
SMALL
GASTEIGER

@<TRIPOS>ATOM
      1 C         142.0739  139.2639  160.3970 C.3     1  UNL1        0.1753
      2 C         142.5426  140.0668  159.2199 C.ar    1  UNL1        0.0089
      3 C         143.8555  140.7235  158.9116 C.ar    1  UNL1       -0.0021
      4 C         144.0343  141.4754  157.6261 C.ar    1  UNL1       -0.0003
      5 C         142.9003  141.5707  156.6489 C.ar    1  UNL1        0.0001
      6 C         141.5874  140.9140  156.9572 C.ar    1  UNL1        0.0043
      7 C         141.4086  140.1621  158.2427 C.ar    1  UNL1        0.0516
      8 C         140.2390  139.4180  158.8159 C.2     1  UNL1        0.2495
      9 O         138.8943  139.2574  158.1709 O.2     1  UNL1       -0.2699
     10 N         140.6502  138.8629  160.1474 N.am    1  UNL1       -0.2603
     11 O         143.6682  137.6427  161.6539 O.2     1  UNL1       -0.2729
     12 C         142.8863  138.9220  161.6107 C.2     1  UNL1        0.2452
     13 N         142.9167  139.8594  162.7814 N.am    1  UNL1       -0.2988
     14 H         142.4035  140.6991  162.7531 H       1  UNL1        0.1498
     15 C         143.7291  139.5175  163.9951 C.3     1  UNL1        0.1164
     16 C         143.3330  140.0548  165.3384 C.ar    1  UNL1       -0.0024
     17 C         142.9077  139.1142  166.4267 C.ar    1  UNL1        0.0005
     18 C         142.5116  139.6515  167.7699 C.ar    1  UNL1        0.0369
     19 C         142.5408  141.1294  168.0250 C.ar    1  UNL1        0.1468
     20 C         142.9661  142.0700  166.9367 C.ar    1  UNL1        0.0369
     21 C         143.3623  141.5326  165.5933 C.ar    1  UNL1        0.0005
     22 O         142.1447  141.6666  169.3683 O.3     1  UNL1       -0.4045
     23 C         141.3099  142.9093  169.4627 C.3     1  UNL1        0.5753
     24 F         140.4750  144.1519  169.5571 F       1  UNL1       -0.1328
     25 F         142.4252  143.6036  170.1866 F       1  UNL1       -0.1328
     26 F         140.1946  142.2150  168.7388 F       1  UNL1       -0.1328
     27 C         139.7889  138.0496  161.0676 C.3     1  UNL1        0.1670
     28 C         139.5651  138.5017  162.4802 C.3     1  UNL1        0.3162
     29 F         138.8797  139.7371  161.9762 F       1  UNL1       -0.1961
     30 F         140.2504  137.2663  162.9842 F       1  UNL1       -0.1961
     31 C         139.3412  138.9538  163.8929 C.ar    1  UNL1        0.1208
     32 C         139.7820  140.3221  164.3212 C.ar    1  UNL1        0.0202
     33 C         139.5581  140.7742  165.7339 C.ar    1  UNL1        0.0030
     34 C         138.8935  139.8579  166.7182 C.ar    1  UNL1        0.0207
     35 C         138.4528  138.4896  166.2897 C.ar    1  UNL1        0.0986
     36 N         138.6766  138.0376  164.8771 N.ar    1  UNL1       -0.2428
@<TRIPOS>BOND
     1    11    12    2
     2    12    13   am
     3    13    15    1
     4    15    16    1
     5    16    17   ar
     6    17    18   ar
     7    18    19   ar
     8    19    22    1
     9    22    23    1
    10    23    24    1
    11    23    25    1
    12    23    26    1
    13    19    20   ar
    14    20    21   ar
    15    12     1    1
    16     1     2    1
    17     2     3   ar
    18     3     4   ar
    19     4     5   ar
    20     5     6   ar
    21     6     7   ar
    22     7     8    1
    23     8     9    2
    24     8    10   am
    25    10    27    1
    26    27    28    1
    27    28    29    1
    28    28    30    1
    29    28    31    1
    30    31    32   ar
    31    32    33   ar
    32    33    34   ar
    33    34    35   ar
    34    35    36   ar
    35    21    16   ar
    36    10     1    1
    37    36    31   ar
    38     7     2   ar
    39    13    14    1
