@<TRIPOS>MOLECULE
*****
 37 42 0 0 0
SMALL
GASTEIGER

@<TRIPOS>ATOM
      1 C         142.5513  137.7107  157.0501 C.3     1  UNL1        0.1161
      2 C         143.1492  136.3620  157.3214 C.3     1  UNL1        0.0510
      3 C         142.6130  135.1492  156.6204 C.2     1  UNL1       -0.0044
      4 C         141.4788  135.2850  155.6482 C.2     1  UNL1        0.0689
      5 N         141.1622  133.9205  155.1119 N.2     1  UNL1       -0.2526
      6 C         142.1007  132.9413  155.7526 C.2     1  UNL1        0.0627
      7 C         142.2546  131.4563  155.6074 C.3     1  UNL1        0.0717
      8 C         143.3051  130.7307  156.3947 C.2     1  UNL1       -0.0198
      9 C         144.2018  131.4902  157.3271 C.2     1  UNL1       -0.0042
     10 C         144.0479  132.9751  157.4722 C.2     1  UNL1        0.0006
     11 C         142.9973  133.7007  156.6849 C.2     1  UNL1        0.0111
     12 C         140.8809  136.6337  155.3770 C.3     1  UNL1        0.0949
     13 N         141.4172  137.8466  156.0779 N.3     1  UNL1       -0.2887
     14 H         140.6378  138.2591  156.5905 H       1  UNL1        0.1239
     15 C         143.8193  140.4490  159.4913 C.ar    1  UNL1        0.0770
     16 C         144.0065  141.1309  158.1685 C.ar    1  UNL1        0.1171
     17 N         143.5543  140.1881  157.0930 N.ar    1  UNL1       -0.2282
     18 C         143.0877  138.9237  157.7512 C.ar    1  UNL1        0.1318
     19 N         143.2514  139.0849  159.2334 N.ar    1  UNL1       -0.3397
     20 H         143.0257  138.4132  159.9170 H       1  UNL1        0.1671
     21 C         144.3909  143.0923  162.3959 C.ar    1  UNL1        0.1469
     22 C         144.7907  142.1901  163.5255 C.ar    1  UNL1        0.0372
     23 C         144.8667  140.7076  163.3105 C.ar    1  UNL1        0.0032
     24 C         144.5429  140.1273  161.9658 C.ar    1  UNL1        0.0017
     25 C         144.1431  141.0295  160.8361 C.ar    1  UNL1        0.0202
     26 C         144.0671  142.5120  161.0511 C.ar    1  UNL1        0.0387
     27 O         144.3149  144.5749  162.6109 O.3     1  UNL1       -0.4045
     28 F         141.9839  145.7598  164.0816 F       1  UNL1       -0.1328
     29 C         143.1495  145.1674  163.3462 C.3     1  UNL1        0.5753
     30 F         142.2344  144.7466  162.2348 F       1  UNL1       -0.1328
     31 F         144.0646  145.5881  164.4577 F       1  UNL1       -0.1328
     32 C         139.7467  136.7696  154.4048 C.3     1  UNL1        0.0252
     33 C         138.4693  137.4306  154.8302 C.3     1  UNL1        0.0339
     34 C         137.3351  137.5664  153.8579 C.3     1  UNL1        0.1422
     35 O         137.4785  137.0412  152.4602 O.3     1  UNL1       -0.3538
     36 C         138.7560  136.3801  152.0348 C.3     1  UNL1        0.1422
     37 C         139.8900  136.2443  153.0070 C.3     1  UNL1        0.0339
@<TRIPOS>BOND
     1    28    29    1
     2    29    30    1
     3    29    31    1
     4    29    27    1
     5    27    21    1
     6    21    22   ar
     7    22    23   ar
     8    23    24   ar
     9    24    25   ar
    10    25    15    1
    11    15    16   ar
    12    16    17   ar
    13    17    18   ar
    14     1    18    1
    15     1     2    1
    16     2     3    1
    17     3     4    2
    18     4     5    1
    19     5     6    2
    20     6     7    1
    21     7     8    1
    22     8     9    2
    23     9    10    1
    24    10    11    2
    25     4    12    1
    26    12    32    1
    27    32    33    1
    28    33    34    1
    29    34    35    1
    30    35    36    1
    31    36    37    1
    32    12    13    1
    33    18    19   ar
    34    25    26   ar
    35    26    21   ar
    36    19    15   ar
    37    13     1    1
    38    11     3    1
    39    37    32    1
    40    11     6    1
    41    13    14    1
    42    19    20    1
@<TRIPOS>MOLECULE
*****
 37 42 0 0 0
SMALL
GASTEIGER

@<TRIPOS>ATOM
      1 C         142.5318  136.7168  157.5912 C.3     1  UNL1        0.1161
      2 C         143.2617  135.4197  157.4046 C.3     1  UNL1        0.0510
      3 C         142.8940  134.5084  156.2714 C.2     1  UNL1       -0.0044
      4 C         141.7963  134.8942  155.3247 C.2     1  UNL1        0.0689
      5 N         141.6560  133.8008  154.3075 N.2     1  UNL1       -0.2526
      6 C         142.6670  132.7392  154.6255 C.2     1  UNL1        0.0627
      7 C         142.9897  131.4309  153.9667 C.3     1  UNL1        0.0717
      8 C         144.0775  130.5600  154.5216 C.2     1  UNL1       -0.0198
      9 C         144.8427  130.9974  155.7354 C.2     1  UNL1       -0.0042
     10 C         144.5200  132.3057  156.3942 C.2     1  UNL1        0.0006
     11 C         143.4321  133.1766  155.8393 C.2     1  UNL1        0.0111
     12 C         141.0663  136.1913  155.5113 C.3     1  UNL1        0.0949
     13 N         141.4341  137.1026  156.6445 N.3     1  UNL1       -0.2887
     14 H         140.5919  137.2289  157.2059 H       1  UNL1        0.1239
     15 C         143.2082  138.5246  160.9587 C.ar    1  UNL1        0.0770
     16 C         143.7227  139.5363  159.9781 C.ar    1  UNL1        0.1171
     17 N         143.5320  138.9824  158.5973 N.ar    1  UNL1       -0.2282
     18 C         142.8996  137.6282  158.7245 C.ar    1  UNL1        0.1318
     19 N         142.6994  137.3452  160.1839 N.ar    1  UNL1       -0.3397
     20 H         142.3037  136.5288  160.5661 H       1  UNL1        0.1671
     21 C         141.9810  138.4227  164.7314 C.ar    1  UNL1        0.1469
     22 C         143.1935  138.9521  165.4383 C.ar    1  UNL1        0.0372
     23 C         144.4109  139.3389  164.6520 C.ar    1  UNL1        0.0032
     24 C         144.4158  139.1964  163.1588 C.ar    1  UNL1        0.0017
     25 C         143.2033  138.6670  162.4519 C.ar    1  UNL1        0.0202
     26 C         141.9859  138.2802  163.2382 C.ar    1  UNL1        0.0387
     27 O         140.7636  138.0359  165.5178 O.3     1  UNL1       -0.4045
     28 F         138.1034  139.2580  164.8621 F       1  UNL1       -0.1328
     29 C         139.4336  138.6469  165.1900 C.3     1  UNL1        0.5753
     30 F         138.8483  137.2774  165.0120 F       1  UNL1       -0.1328
     31 F         140.0189  140.0165  165.3680 F       1  UNL1       -0.1328
     32 C         139.9686  136.5770  154.5646 C.3     1  UNL1        0.0252
     33 C         140.1372  136.3557  153.0907 C.3     1  UNL1        0.0339
     34 C         139.0394  136.7415  152.1440 C.3     1  UNL1        0.1422
     35 O         137.7731  137.3486  152.6713 O.3     1  UNL1       -0.3538
     36 C         137.6046  137.5699  154.1453 C.3     1  UNL1        0.1422
     37 C         138.7023  137.1841  155.0919 C.3     1  UNL1        0.0339
@<TRIPOS>BOND
     1    28    29    1
     2    29    30    1
     3    29    31    1
     4    29    27    1
     5    27    21    1
     6    21    22   ar
     7    22    23   ar
     8    23    24   ar
     9    24    25   ar
    10    25    15    1
    11    15    16   ar
    12    16    17   ar
    13    17    18   ar
    14     1    18    1
    15     1     2    1
    16     2     3    1
    17     3     4    2
    18     4     5    1
    19     5     6    2
    20     6     7    1
    21     7     8    1
    22     8     9    2
    23     9    10    1
    24    10    11    2
    25     4    12    1
    26    12    32    1
    27    32    33    1
    28    33    34    1
    29    34    35    1
    30    35    36    1
    31    36    37    1
    32    12    13    1
    33    18    19   ar
    34    25    26   ar
    35    26    21   ar
    36    19    15   ar
    37    13     1    1
    38    11     3    1
    39    37    32    1
    40    11     6    1
    41    13    14    1
    42    19    20    1
@<TRIPOS>MOLECULE
*****
 37 42 0 0 0
SMALL
GASTEIGER

@<TRIPOS>ATOM
      1 C         142.1907  140.0516  160.5434 C.3     1  UNL1        0.1161
      2 C         142.6430  139.3932  161.8129 C.3     1  UNL1        0.0510
      3 C         142.2954  140.0023  163.1389 C.2     1  UNL1       -0.0044
      4 C         141.4954  141.2699  163.1952 C.2     1  UNL1        0.0689
      5 N         141.3058  141.6346  164.6378 N.2     1  UNL1       -0.2526
      6 C         141.9885  140.5923  165.4730 C.2     1  UNL1        0.0627
      7 C         142.1323  140.4315  166.9574 C.3     1  UNL1        0.0717
      8 C         142.8877  139.2620  167.5154 C.2     1  UNL1       -0.0198
      9 C         143.4994  138.2532  166.5890 C.2     1  UNL1       -0.0042
     10 C         143.3556  138.4140  165.1046 C.2     1  UNL1        0.0006
     11 C         142.6002  139.5835  164.5466 C.2     1  UNL1        0.0111
     12 C         141.0431  141.9284  161.9256 C.3     1  UNL1        0.0949
     13 N         141.3907  141.3192  160.5997 N.3     1  UNL1       -0.2887
     14 H         141.9168  142.0227  160.0813 H       1  UNL1        0.1239
     15 C         142.8434  137.8353  157.4245 C.ar    1  UNL1        0.0770
     16 C         143.3030  139.1746  156.9296 C.ar    1  UNL1        0.1171
     17 N         143.1145  140.1679  158.0377 N.ar    1  UNL1       -0.2282
     18 C         142.5383  139.4424  159.2174 C.ar    1  UNL1        0.1318
     19 N         142.3708  138.0008  158.8385 N.ar    1  UNL1       -0.3397
     20 H         142.0134  137.2884  159.4163 H       1  UNL1        0.1671
     21 C         143.0926  133.9693  156.5633 C.ar    1  UNL1        0.1469
     22 C         142.8766  133.9950  155.0792 C.ar    1  UNL1        0.0372
     23 C         142.6496  135.3007  154.3768 C.ar    1  UNL1        0.0032
     24 C         142.6385  136.5808  155.1586 C.ar    1  UNL1        0.0017
     25 C         142.8545  136.5551  156.6427 C.ar    1  UNL1        0.0202
     26 C         143.0815  135.2493  157.3451 C.ar    1  UNL1        0.0387
     27 O         143.3196  132.6634  157.2657 O.3     1  UNL1       -0.4045
     28 F         145.1081  130.5910  156.0382 F       1  UNL1       -0.1328
     29 C         144.2139  131.6272  156.6519 C.3     1  UNL1        0.5753
     30 F         143.0144  130.7929  156.3128 F       1  UNL1       -0.1328
     31 F         145.4134  132.4616  156.9911 F       1  UNL1       -0.1328
     32 C         140.2431  143.1960  161.9819 C.3     1  UNL1        0.0252
     33 C         140.7957  144.4586  161.3901 C.3     1  UNL1        0.0339
     34 C         139.9957  145.7262  161.4465 C.3     1  UNL1        0.1422
     35 O         138.6430  145.7311  162.0947 O.3     1  UNL1       -0.3538
     36 C         138.0903  144.4685  162.6865 C.3     1  UNL1        0.1422
     37 C         138.8903  143.2010  162.6301 C.3     1  UNL1        0.0339
@<TRIPOS>BOND
     1    28    29    1
     2    29    30    1
     3    29    31    1
     4    29    27    1
     5    27    21    1
     6    21    22   ar
     7    22    23   ar
     8    23    24   ar
     9    24    25   ar
    10    25    15    1
    11    15    16   ar
    12    16    17   ar
    13    17    18   ar
    14     1    18    1
    15     1     2    1
    16     2     3    1
    17     3     4    2
    18     4     5    1
    19     5     6    2
    20     6     7    1
    21     7     8    1
    22     8     9    2
    23     9    10    1
    24    10    11    2
    25     4    12    1
    26    12    32    1
    27    32    33    1
    28    33    34    1
    29    34    35    1
    30    35    36    1
    31    36    37    1
    32    12    13    1
    33    18    19   ar
    34    25    26   ar
    35    26    21   ar
    36    19    15   ar
    37    13     1    1
    38    11     3    1
    39    37    32    1
    40    11     6    1
    41    13    14    1
    42    19    20    1
@<TRIPOS>MOLECULE
*****
 37 42 0 0 0
SMALL
GASTEIGER

@<TRIPOS>ATOM
      1 C         141.8419  140.2520  159.7150 C.3     1  UNL1        0.1161
      2 C         143.0149  141.0830  159.2867 C.3     1  UNL1        0.0510
      3 C         143.8030  140.6974  158.0701 C.2     1  UNL1       -0.0044
      4 C         143.4181  139.4806  157.2818 C.2     1  UNL1        0.0689
      5 N         144.3759  139.3492  156.1350 N.2     1  UNL1       -0.2526
      6 C         145.3529  140.4847  156.2145 C.2     1  UNL1        0.0627
      7 C         146.5191  140.8676  155.3524 C.3     1  UNL1        0.0717
      8 C         147.3312  142.0837  155.6862 C.2     1  UNL1       -0.0198
      9 C         146.9771  142.9169  156.8822 C.2     1  UNL1       -0.0042
     10 C         145.8109  142.5340  157.7443 C.2     1  UNL1        0.0006
     11 C         144.9988  141.3179  157.4104 C.2     1  UNL1        0.0111
     12 C         142.2451  138.6496  157.7101 C.3     1  UNL1        0.0949
     13 N         141.4570  139.0353  158.9267 N.3     1  UNL1       -0.2887
     14 H         141.4992  138.2433  159.5682 H       1  UNL1        0.1239
     15 C         140.0036  140.5701  163.1187 C.ar    1  UNL1        0.0770
     16 C         139.6788  141.8923  162.4892 C.ar    1  UNL1        0.1171
     17 N         140.3280  141.9341  161.1376 N.ar    1  UNL1       -0.2282
     18 C         141.0539  140.6377  160.9317 C.ar    1  UNL1        0.1318
     19 N         140.8534  139.7947  162.1561 N.ar    1  UNL1       -0.3397
     20 H         141.2160  138.8911  162.3022 H       1  UNL1        0.1671
     21 C         139.6259  140.3188  167.0613 C.ar    1  UNL1        0.1469
     22 C         138.6636  139.1745  167.1815 C.ar    1  UNL1        0.0372
     23 C         138.1480  138.4953  165.9475 C.ar    1  UNL1        0.0032
     24 C         138.5947  138.9605  164.5932 C.ar    1  UNL1        0.0017
     25 C         139.5569  140.1049  164.4730 C.ar    1  UNL1        0.0202
     26 C         140.0725  140.7841  165.7070 C.ar    1  UNL1        0.0387
     27 O         140.1415  140.9980  168.2954 O.3     1  UNL1       -0.4045
     28 F         139.8959  139.6489  170.9637 F       1  UNL1       -0.1328
     29 C         140.0187  140.3235  169.6295 C.3     1  UNL1        0.5753
     30 F         138.7795  141.1181  169.9172 F       1  UNL1       -0.1328
     31 F         141.2580  139.5289  169.3417 F       1  UNL1       -0.1328
     32 C         141.8601  137.4329  156.9218 C.3     1  UNL1        0.0252
     33 C         142.7028  136.1943  156.9950 C.3     1  UNL1        0.0339
     34 C         142.3178  134.9775  156.2067 C.3     1  UNL1        0.1422
     35 O         141.0901  134.9995  155.3452 O.3     1  UNL1       -0.3538
     36 C         140.2473  136.2382  155.2720 C.3     1  UNL1        0.1422
     37 C         140.6323  137.4548  156.0603 C.3     1  UNL1        0.0339
@<TRIPOS>BOND
     1    28    29    1
     2    29    30    1
     3    29    31    1
     4    29    27    1
     5    27    21    1
     6    21    22   ar
     7    22    23   ar
     8    23    24   ar
     9    24    25   ar
    10    25    15    1
    11    15    16   ar
    12    16    17   ar
    13    17    18   ar
    14     1    18    1
    15     1     2    1
    16     2     3    1
    17     3     4    2
    18     4     5    1
    19     5     6    2
    20     6     7    1
    21     7     8    1
    22     8     9    2
    23     9    10    1
    24    10    11    2
    25     4    12    1
    26    12    32    1
    27    32    33    1
    28    33    34    1
    29    34    35    1
    30    35    36    1
    31    36    37    1
    32    12    13    1
    33    18    19   ar
    34    25    26   ar
    35    26    21   ar
    36    19    15   ar
    37    13     1    1
    38    11     3    1
    39    37    32    1
    40    11     6    1
    41    13    14    1
    42    19    20    1
@<TRIPOS>MOLECULE
*****
 37 42 0 0 0
SMALL
GASTEIGER

@<TRIPOS>ATOM
      1 C         140.5006  143.7153  160.1481 C.3     1  UNL1        0.1161
      2 C         139.9726  144.8219  159.2841 C.3     1  UNL1        0.0510
      3 C         140.4833  144.9888  157.8836 C.2     1  UNL1       -0.0044
      4 C         141.5220  144.0490  157.3472 C.2     1  UNL1        0.0689
      5 N         141.8335  144.4579  155.9380 N.2     1  UNL1       -0.2526
      6 C         140.9873  145.6504  155.6035 C.2     1  UNL1        0.0627
      7 C         140.8688  146.4799  154.3594 C.3     1  UNL1        0.0717
      8 C         139.9158  147.6375  154.3178 C.2     1  UNL1       -0.0198
      9 C         139.0813  147.9656  155.5202 C.2     1  UNL1       -0.0042
     10 C         139.1998  147.1361  156.7644 C.2     1  UNL1        0.0006
     11 C         140.1528  145.9785  156.8060 C.2     1  UNL1        0.0111
     12 C         142.0500  142.9423  158.2112 C.3     1  UNL1        0.0949
     13 N         141.5393  142.7755  159.6116 N.3     1  UNL1       -0.2887
     14 H         142.3474  142.8456  160.2300 H       1  UNL1        0.1239
     15 C         139.4242  142.5747  163.6985 C.ar    1  UNL1        0.0770
     16 C         138.9837  144.0085  163.7088 C.ar    1  UNL1        0.1171
     17 N         139.3333  144.6103  162.3800 N.ar    1  UNL1       -0.2282
     18 C         139.9898  143.5484  161.5486 C.ar    1  UNL1        0.1318
     19 N         140.0460  142.2903  162.3634 N.ar    1  UNL1       -0.3397
     20 H         140.4246  141.4292  162.0730 H       1  UNL1        0.1671
     21 C         139.8489  140.8393  167.2422 C.ar    1  UNL1        0.1469
     22 C         138.9613  139.6412  167.0794 C.ar    1  UNL1        0.0372
     23 C         138.2279  139.4208  165.7896 C.ar    1  UNL1        0.0032
     24 C         138.3822  140.3987  164.6627 C.ar    1  UNL1        0.0017
     25 C         139.2699  141.5968  164.8255 C.ar    1  UNL1        0.0202
     26 C         140.0032  141.8171  166.1153 C.ar    1  UNL1        0.0387
     27 O         140.5823  141.0596  168.5321 O.3     1  UNL1       -0.4045
     28 F         139.6875  139.6519  171.0257 F       1  UNL1       -0.1328
     29 C         140.1350  140.3558  169.7789 C.3     1  UNL1        0.5753
     30 F         139.0440  141.3692  169.9596 F       1  UNL1       -0.1328
     31 F         141.2259  139.3423  169.5982 F       1  UNL1       -0.1328
     32 C         143.0888  142.0025  157.6747 C.3     1  UNL1        0.0252
     33 C         144.5169  142.4474  157.5636 C.3     1  UNL1        0.0339
     34 C         145.5556  141.5075  157.0271 C.3     1  UNL1        0.1422
     35 O         145.1662  140.1228  156.6018 O.3     1  UNL1       -0.3538
     36 C         143.7379  139.6779  156.7129 C.3     1  UNL1        0.1422
     37 C         142.6993  140.6177  157.2494 C.3     1  UNL1        0.0339
@<TRIPOS>BOND
     1    28    29    1
     2    29    30    1
     3    29    31    1
     4    29    27    1
     5    27    21    1
     6    21    22   ar
     7    22    23   ar
     8    23    24   ar
     9    24    25   ar
    10    25    15    1
    11    15    16   ar
    12    16    17   ar
    13    17    18   ar
    14     1    18    1
    15     1     2    1
    16     2     3    1
    17     3     4    2
    18     4     5    1
    19     5     6    2
    20     6     7    1
    21     7     8    1
    22     8     9    2
    23     9    10    1
    24    10    11    2
    25     4    12    1
    26    12    32    1
    27    32    33    1
    28    33    34    1
    29    34    35    1
    30    35    36    1
    31    36    37    1
    32    12    13    1
    33    18    19   ar
    34    25    26   ar
    35    26    21   ar
    36    19    15   ar
    37    13     1    1
    38    11     3    1
    39    37    32    1
    40    11     6    1
    41    13    14    1
    42    19    20    1
@<TRIPOS>MOLECULE
*****
 37 42 0 0 0
SMALL
GASTEIGER

@<TRIPOS>ATOM
      1 C         139.3576  139.7754  157.6486 C.3     1  UNL1        0.1161
      2 C         139.0234  139.6768  159.1076 C.3     1  UNL1        0.0510
      3 C         138.7297  140.9190  159.8954 C.2     1  UNL1       -0.0044
      4 C         138.7701  142.2598  159.2242 C.2     1  UNL1        0.0689
      5 N         138.4378  143.3021  160.2505 N.2     1  UNL1       -0.2526
      6 C         138.1920  142.6054  161.5560 C.2     1  UNL1        0.0627
      7 C         137.8272  143.1219  162.9161 C.3     1  UNL1        0.0717
      8 C         137.6429  142.1655  164.0569 C.2     1  UNL1       -0.0198
      9 C         137.8233  140.6927  163.8374 C.2     1  UNL1       -0.0042
     10 C         138.1880  140.1762  162.4772 C.2     1  UNL1        0.0006
     11 C         138.3724  141.1326  161.3365 C.2     1  UNL1        0.0111
     12 C         139.1043  142.3584  157.7652 C.3     1  UNL1        0.0949
     13 N         139.3980  141.1162  156.9774 N.3     1  UNL1       -0.2887
     14 H         140.3370  141.2256  156.5944 H       1  UNL1        0.1239
     15 C         140.7204  136.5070  156.0594 C.ar    1  UNL1        0.0770
     16 C         139.4865  136.7361  155.2379 C.ar    1  UNL1        0.1171
     17 N         138.8257  137.9883  155.7333 N.ar    1  UNL1       -0.2282
     18 C         139.6514  138.5331  156.8608 C.ar    1  UNL1        0.1318
     19 N         140.8223  137.6177  157.0625 N.ar    1  UNL1       -0.3397
     20 H         141.5330  137.7266  157.7350 H       1  UNL1        0.1671
     21 C         142.2644  133.0283  154.9349 C.ar    1  UNL1        0.1469
     22 C         143.6094  133.0881  155.5962 C.ar    1  UNL1        0.0372
     23 C         143.9914  134.2875  156.4120 C.ar    1  UNL1        0.0032
     24 C         143.0284  135.4271  156.5663 C.ar    1  UNL1        0.0017
     25 C         141.6834  135.3673  155.9050 C.ar    1  UNL1        0.0202
     26 C         141.3014  134.1679  155.0893 C.ar    1  UNL1        0.0387
     27 O         141.8825  131.8288  154.1191 O.3     1  UNL1       -0.4045
     28 F         139.5239  130.1578  154.9222 F       1  UNL1       -0.1328
     29 C         140.7032  130.9933  154.5206 C.3     1  UNL1        0.5753
     30 F         141.4828  130.4508  155.6816 F       1  UNL1       -0.1328
     31 F         139.9236  131.5359  153.3597 F       1  UNL1       -0.1328
     32 C         139.1447  143.6993  157.0940 C.3     1  UNL1        0.0252
     33 C         138.2377  143.9849  155.9340 C.3     1  UNL1        0.0339
     34 C         138.2782  145.3259  155.2628 C.3     1  UNL1        0.1422
     35 O         139.2257  146.3810  155.7516 O.3     1  UNL1       -0.3538
     36 C         140.1327  146.0953  156.9117 C.3     1  UNL1        0.1422
     37 C         140.0922  144.7545  157.5828 C.3     1  UNL1        0.0339
@<TRIPOS>BOND
     1    28    29    1
     2    29    30    1
     3    29    31    1
     4    29    27    1
     5    27    21    1
     6    21    22   ar
     7    22    23   ar
     8    23    24   ar
     9    24    25   ar
    10    25    15    1
    11    15    16   ar
    12    16    17   ar
    13    17    18   ar
    14     1    18    1
    15     1     2    1
    16     2     3    1
    17     3     4    2
    18     4     5    1
    19     5     6    2
    20     6     7    1
    21     7     8    1
    22     8     9    2
    23     9    10    1
    24    10    11    2
    25     4    12    1
    26    12    32    1
    27    32    33    1
    28    33    34    1
    29    34    35    1
    30    35    36    1
    31    36    37    1
    32    12    13    1
    33    18    19   ar
    34    25    26   ar
    35    26    21   ar
    36    19    15   ar
    37    13     1    1
    38    11     3    1
    39    37    32    1
    40    11     6    1
    41    13    14    1
    42    19    20    1
@<TRIPOS>MOLECULE
*****
 37 42 0 0 0
SMALL
GASTEIGER

@<TRIPOS>ATOM
      1 C         143.0921  143.2231  160.0965 C.3     1  UNL1        0.1161
      2 C         142.0742  144.1614  159.5189 C.3     1  UNL1        0.0510
      3 C         142.0505  144.4258  158.0426 C.2     1  UNL1       -0.0044
      4 C         143.0447  143.7520  157.1439 C.2     1  UNL1        0.0689
      5 N         142.7800  144.2042  155.7384 N.2     1  UNL1       -0.2526
      6 C         141.6222  145.1574  155.7684 C.2     1  UNL1        0.0627
      7 C         140.9203  145.9184  154.6831 C.3     1  UNL1        0.0717
      8 C         139.7675  146.8164  155.0217 C.2     1  UNL1       -0.0198
      9 C         139.3167  146.9534  156.4458 C.2     1  UNL1       -0.0042
     10 C         140.0186  146.1924  157.5312 C.2     1  UNL1        0.0006
     11 C         141.1714  145.2944  157.1925 C.2     1  UNL1        0.0111
     12 C         144.0626  142.8137  157.7216 C.3     1  UNL1        0.0949
     13 N         144.0863  142.5493  159.1979 N.3     1  UNL1       -0.2887
     14 H         145.0126  142.8173  159.5302 H       1  UNL1        0.1239
     15 C         142.5644  142.0916  163.7717 C.ar    1  UNL1        0.0770
     16 C         143.7400  143.0118  163.9177 C.ar    1  UNL1        0.1171
     17 N         144.0808  143.5476  162.5587 N.ar    1  UNL1       -0.2282
     18 C         143.1158  142.9586  161.5729 C.ar    1  UNL1        0.1318
     19 N         142.1786  142.0588  162.3225 N.ar    1  UNL1       -0.3397
     20 H         141.4400  141.5381  161.9319 H       1  UNL1        0.1671
     21 C         139.8397  140.0308  165.7913 C.ar    1  UNL1        0.1469
     22 C         140.5489  139.8272  167.0973 C.ar    1  UNL1        0.0372
     23 C         141.9298  140.3785  167.2948 C.ar    1  UNL1        0.0032
     24 C         142.6016  141.1333  166.1863 C.ar    1  UNL1        0.0017
     25 C         141.8925  141.3368  164.8803 C.ar    1  UNL1        0.0202
     26 C         140.5115  140.7855  164.6828 C.ar    1  UNL1        0.0387
     27 O         138.4587  139.4794  165.5938 O.3     1  UNL1       -0.4045
     28 F         137.7595  136.7659  166.6652 F       1  UNL1       -0.1328
     29 C         138.1091  138.1227  166.1295 C.3     1  UNL1        0.5753
     30 F         139.0150  137.4890  165.1158 F       1  UNL1       -0.1328
     31 F         137.2032  138.7564  167.1433 F       1  UNL1       -0.1328
     32 C         145.0567  142.1399  156.8229 C.3     1  UNL1        0.0252
     33 C         144.6237  141.0050  155.9430 C.3     1  UNL1        0.0339
     34 C         145.6179  140.3311  155.0443 C.3     1  UNL1        0.1422
     35 O         147.0451  140.7923  155.0256 O.3     1  UNL1       -0.3538
     36 C         147.4782  141.9273  155.9055 C.3     1  UNL1        0.1422
     37 C         146.4840  142.6011  156.8041 C.3     1  UNL1        0.0339
@<TRIPOS>BOND
     1    28    29    1
     2    29    30    1
     3    29    31    1
     4    29    27    1
     5    27    21    1
     6    21    22   ar
     7    22    23   ar
     8    23    24   ar
     9    24    25   ar
    10    25    15    1
    11    15    16   ar
    12    16    17   ar
    13    17    18   ar
    14     1    18    1
    15     1     2    1
    16     2     3    1
    17     3     4    2
    18     4     5    1
    19     5     6    2
    20     6     7    1
    21     7     8    1
    22     8     9    2
    23     9    10    1
    24    10    11    2
    25     4    12    1
    26    12    32    1
    27    32    33    1
    28    33    34    1
    29    34    35    1
    30    35    36    1
    31    36    37    1
    32    12    13    1
    33    18    19   ar
    34    25    26   ar
    35    26    21   ar
    36    19    15   ar
    37    13     1    1
    38    11     3    1
    39    37    32    1
    40    11     6    1
    41    13    14    1
    42    19    20    1
@<TRIPOS>MOLECULE
*****
 37 42 0 0 0
SMALL
GASTEIGER

@<TRIPOS>ATOM
      1 C         142.4183  139.5810  160.0381 C.3     1  UNL1        0.1161
      2 C         143.4568  140.5319  159.5212 C.3     1  UNL1        0.0510
      3 C         144.0470  140.3290  158.1572 C.2     1  UNL1       -0.0044
      4 C         143.5987  139.1751  157.3101 C.2     1  UNL1        0.0689
      5 N         144.3545  139.2293  156.0156 N.2     1  UNL1       -0.2526
      6 C         145.2698  140.4167  156.0626 C.2     1  UNL1        0.0627
      7 C         146.2518  140.9668  155.0711 C.3     1  UNL1        0.0717
      8 C         147.0438  142.1966  155.4033 C.2     1  UNL1       -0.0198
      9 C         146.8537  142.8763  156.7269 C.2     1  UNL1       -0.0042
     10 C         145.8717  142.3262  157.7183 C.2     1  UNL1        0.0006
     11 C         145.0798  141.0964  157.3862 C.2     1  UNL1        0.0111
     12 C         142.5602  138.2241  157.8271 C.3     1  UNL1        0.0949
     13 N         141.9700  138.4270  159.1911 N.3     1  UNL1       -0.2887
     14 H         142.1616  137.5787  159.7240 H       1  UNL1        0.1239
     15 C         141.5894  140.3161  163.7580 C.ar    1  UNL1        0.0770
     16 C         140.2506  139.8764  163.2442 C.ar    1  UNL1        0.1171
     17 N         140.3981  139.5475  161.7882 N.ar    1  UNL1       -0.2282
     18 C         141.8281  139.7839  161.4022 C.ar    1  UNL1        0.1318
     19 N         142.5644  140.2590  162.6196 N.ar    1  UNL1       -0.3397
     20 H         143.5199  140.4923  162.6636 H       1  UNL1        0.1671
     21 C         141.5461  140.4698  167.7234 C.ar    1  UNL1        0.1469
     22 C         142.5182  141.5842  167.9746 C.ar    1  UNL1        0.0372
     23 C         143.1807  142.2760  166.8202 C.ar    1  UNL1        0.0032
     24 C         142.8711  141.8533  165.4148 C.ar    1  UNL1        0.0017
     25 C         141.8990  140.7388  165.1636 C.ar    1  UNL1        0.0202
     26 C         141.2365  140.0471  166.3180 C.ar    1  UNL1        0.0387
     27 O         140.8836  139.7781  168.8779 O.3     1  UNL1       -0.4045
     28 F         138.4619  140.9936  170.1655 F       1  UNL1       -0.1328
     29 C         139.6728  140.3858  169.5217 C.3     1  UNL1        0.5753
     30 F         140.5456  141.0227  170.5620 F       1  UNL1       -0.1328
     31 F         138.7999  139.7488  168.4813 F       1  UNL1       -0.1328
     32 C         142.1119  137.0702  156.9800 C.3     1  UNL1        0.0252
     33 C         142.8965  135.7918  156.9782 C.3     1  UNL1        0.0339
     34 C         142.4481  134.6379  156.1311 C.3     1  UNL1        0.1422
     35 O         141.2152  134.7624  155.2859 O.3     1  UNL1       -0.3538
     36 C         140.4306  136.0408  155.2877 C.3     1  UNL1        0.1422
     37 C         140.8789  137.1947  156.1348 C.3     1  UNL1        0.0339
@<TRIPOS>BOND
     1    28    29    1
     2    29    30    1
     3    29    31    1
     4    29    27    1
     5    27    21    1
     6    21    22   ar
     7    22    23   ar
     8    23    24   ar
     9    24    25   ar
    10    25    15    1
    11    15    16   ar
    12    16    17   ar
    13    17    18   ar
    14     1    18    1
    15     1     2    1
    16     2     3    1
    17     3     4    2
    18     4     5    1
    19     5     6    2
    20     6     7    1
    21     7     8    1
    22     8     9    2
    23     9    10    1
    24    10    11    2
    25     4    12    1
    26    12    32    1
    27    32    33    1
    28    33    34    1
    29    34    35    1
    30    35    36    1
    31    36    37    1
    32    12    13    1
    33    18    19   ar
    34    25    26   ar
    35    26    21   ar
    36    19    15   ar
    37    13     1    1
    38    11     3    1
    39    37    32    1
    40    11     6    1
    41    13    14    1
    42    19    20    1
@<TRIPOS>MOLECULE
*****
 37 42 0 0 0
SMALL
GASTEIGER

@<TRIPOS>ATOM
      1 C         143.1325  139.5430  159.5467 C.3     1  UNL1        0.1161
      2 C         144.0623  140.4793  158.8333 C.3     1  UNL1        0.0510
      3 C         144.3830  140.2585  157.3847 C.2     1  UNL1       -0.0044
      4 C         143.7739  139.1016  156.6496 C.2     1  UNL1        0.0689
      5 N         144.2724  139.1369  155.2353 N.2     1  UNL1       -0.2526
      6 C         145.1895  140.3157  155.0963 C.2     1  UNL1        0.0627
      7 C         145.9712  140.8475  153.9318 C.3     1  UNL1        0.0717
      8 C         146.8213  142.0724  154.0957 C.2     1  UNL1       -0.0198
      9 C         146.8896  142.7656  155.4242 C.2     1  UNL1       -0.0042
     10 C         146.1080  142.2338  156.5887 C.2     1  UNL1        0.0006
     11 C         145.2579  141.0089  156.4248 C.2     1  UNL1        0.0111
     12 C         142.8441  138.1654  157.3630 C.3     1  UNL1        0.0949
     13 N         142.5234  138.3861  158.8116 N.3     1  UNL1       -0.2887
     14 H         142.8053  137.5407  159.3077 H       1  UNL1        0.1239
     15 C         141.6877  139.7051  163.1456 C.ar    1  UNL1        0.0770
     16 C         142.9487  140.5019  163.3034 C.ar    1  UNL1        0.1171
     17 N         143.6435  140.5382  161.9745 N.ar    1  UNL1       -0.2282
     18 C         142.8118  139.7638  160.9954 C.ar    1  UNL1        0.1318
     19 N         141.6031  139.2490  161.7191 N.ar    1  UNL1       -0.3397
     20 H         140.8810  138.7068  161.3268 H       1  UNL1        0.1671
     21 C         139.6744  139.9502  166.5568 C.ar    1  UNL1        0.1469
     22 C         138.6855  138.8358  166.3830 C.ar    1  UNL1        0.0372
     23 C         138.6974  138.0111  165.1301 C.ar    1  UNL1        0.0032
     24 C         139.6981  138.3009  164.0510 C.ar    1  UNL1        0.0017
     25 C         140.6870  139.4153  164.2248 C.ar    1  UNL1        0.0202
     26 C         140.6751  140.2400  165.4777 C.ar    1  UNL1        0.0387
     27 O         139.6625  140.7749  167.8098 O.3     1  UNL1       -0.4045
     28 F         140.3342  139.5088  170.4453 F       1  UNL1       -0.1328
     29 C         139.9983  140.1418  169.1275 C.3     1  UNL1        0.5753
     30 F         138.6161  140.4445  169.6252 F       1  UNL1       -0.1328
     31 F         141.3806  139.8391  168.6298 F       1  UNL1       -0.1328
     32 C         142.2350  137.0084  156.6279 C.3     1  UNL1        0.0252
     33 C         141.0313  137.2220  155.7588 C.3     1  UNL1        0.0339
     34 C         140.4222  136.0649  155.0237 C.3     1  UNL1        0.1422
     35 O         141.0169  134.6944  155.1576 O.3     1  UNL1       -0.3538
     36 C         142.2207  134.4808  156.0267 C.3     1  UNL1        0.1422
     37 C         142.8297  135.6378  156.7618 C.3     1  UNL1        0.0339
@<TRIPOS>BOND
     1    28    29    1
     2    29    30    1
     3    29    31    1
     4    29    27    1
     5    27    21    1
     6    21    22   ar
     7    22    23   ar
     8    23    24   ar
     9    24    25   ar
    10    25    15    1
    11    15    16   ar
    12    16    17   ar
    13    17    18   ar
    14     1    18    1
    15     1     2    1
    16     2     3    1
    17     3     4    2
    18     4     5    1
    19     5     6    2
    20     6     7    1
    21     7     8    1
    22     8     9    2
    23     9    10    1
    24    10    11    2
    25     4    12    1
    26    12    32    1
    27    32    33    1
    28    33    34    1
    29    34    35    1
    30    35    36    1
    31    36    37    1
    32    12    13    1
    33    18    19   ar
    34    25    26   ar
    35    26    21   ar
    36    19    15   ar
    37    13     1    1
    38    11     3    1
    39    37    32    1
    40    11     6    1
    41    13    14    1
    42    19    20    1
