@<TRIPOS>MOLECULE
*****
 31 35 0 0 0
SMALL
GASTEIGER

@<TRIPOS>ATOM
      1 C         140.0501  143.2379  163.1523 C.ar    1  UNL1        0.1070
      2 C         139.8220  144.7192  163.0914 C.ar    1  UNL1        0.0818
      3 C         139.9059  145.4374  161.7772 C.ar    1  UNL1        0.2675
      4 O         139.6779  146.9188  161.7162 O.2     1  UNL1       -0.2665
      5 N         140.2178  144.6744  160.5240 N.ar    1  UNL1       -0.2583
      6 C         140.3017  145.3927  159.2098 C.ar    1  UNL1        0.0800
      7 C         140.6136  144.6297  157.9566 C.ar    1  UNL1       -0.0050
      8 C         140.8416  143.1483  158.0177 C.ar    1  UNL1       -0.0041
      9 C         140.7578  142.4301  159.3318 C.ar    1  UNL1        0.0124
     10 C         140.9858  140.9488  159.3928 C.3     1  UNL1        0.0342
     11 C         140.4459  143.1931  160.5850 C.ar    1  UNL1        0.1459
     12 N         140.3620  142.4749  161.8992 N.ar    1  UNL1       -0.2265
     13 C         138.9080  139.7354  166.9946 C.ar    1  UNL1        0.0763
     14 N         139.2635  139.6417  168.4488 N.ar    1  UNL1       -0.2509
     15 C         140.1200  140.6984  169.0811 C.ar    1  UNL1        0.0781
     16 C         140.4755  140.6047  170.5354 C.3     1  UNL1        0.0537
     17 C         140.6209  141.8489  168.2592 C.ar    1  UNL1        0.1150
     18 N         140.2653  141.9426  166.8050 N.ar    1  UNL1       -0.2258
     19 N         140.6097  142.9523  165.7505 N.ar    1  UNL1       -0.1634
     20 C         139.9662  142.5196  164.4666 C.ar    1  UNL1        0.1206
     21 C         139.2240  141.2424  164.7275 C.ar    1  UNL1        0.0427
     22 C         139.4088  140.8858  166.1727 C.ar    1  UNL1        0.0979
     23 C         138.6761  137.6285  165.4921 C.3     1  UNL1        0.0067
     24 C         138.0515  138.6787  166.3623 C.3     1  UNL1        0.0474
     25 C         140.6975  145.3479  156.6425 C.3     1  UNL1        0.0266
     26 C         139.8567  146.5660  156.3985 C.3     1  UNL1        0.0218
     27 C         139.9406  147.2842  155.0843 C.3     1  UNL1        0.0725
     28 N         140.8653  146.7845  154.0141 N.3     1  UNL1       -0.2715
     29 C         140.9491  147.5027  152.7000 C.3     1  UNL1        0.0896
     30 C         141.7060  145.5665  154.2581 C.3     1  UNL1        0.0725
     31 C         141.6222  144.8481  155.5723 C.3     1  UNL1        0.0218
@<TRIPOS>BOND
     1    23    24    1
     2    24    13    1
     3    13    14   ar
     4    14    15   ar
     5    15    16    1
     6    15    17   ar
     7    17    18   ar
     8    18    19   ar
     9    19    20   ar
    10    20     1    1
    11     1     2   ar
    12     2     3   ar
    13     3     4    2
    14     3     5   ar
    15     5     6   ar
    16     6     7   ar
    17     7    25    1
    18    25    26    1
    19    26    27    1
    20    27    28    1
    21    28    29    1
    22    28    30    1
    23    30    31    1
    24     7     8   ar
    25     8     9   ar
    26     9    10    1
    27     9    11   ar
    28    11    12   ar
    29    20    21   ar
    30    21    22   ar
    31    22    13   ar
    32    22    18   ar
    33    12     1   ar
    34    11     5   ar
    35    31    25    1
@<TRIPOS>MOLECULE
*****
 31 35 0 0 0
SMALL
GASTEIGER

@<TRIPOS>ATOM
      1 C         141.0230  142.7191  164.0978 C.ar    1  UNL1        0.1070
      2 C         139.8117  143.5701  163.8561 C.ar    1  UNL1        0.0818
      3 C         139.6091  144.2245  162.5217 C.ar    1  UNL1        0.2675
      4 O         138.3977  145.0755  162.2799 O.2     1  UNL1       -0.2665
      5 N         140.6178  144.0280  161.4291 N.ar    1  UNL1       -0.2583
      6 C         140.4151  144.6825  160.0946 C.ar    1  UNL1        0.0800
      7 C         141.4238  144.4860  159.0020 C.ar    1  UNL1       -0.0050
      8 C         142.6352  143.6350  159.2438 C.ar    1  UNL1       -0.0041
      9 C         142.8378  142.9805  160.5781 C.ar    1  UNL1        0.0124
     10 C         144.0492  142.1296  160.8199 C.3     1  UNL1        0.0342
     11 C         141.8291  143.1770  161.6708 C.ar    1  UNL1        0.1459
     12 N         142.0318  142.5226  163.0052 N.ar    1  UNL1       -0.2265
     13 C         140.8654  141.5461  169.2876 C.ar    1  UNL1        0.0763
     14 N         141.4648  140.4516  170.1201 N.ar    1  UNL1       -0.2509
     15 C         142.3125  139.3963  169.4738 C.ar    1  UNL1        0.0781
     16 C         142.9118  138.3019  170.3063 C.3     1  UNL1        0.0537
     17 C         142.5608  139.4354  167.9950 C.ar    1  UNL1        0.1150
     18 N         141.9615  140.5299  167.1625 N.ar    1  UNL1       -0.2258
     19 N         142.0307  140.8262  165.6937 N.ar    1  UNL1       -0.1634
     20 C         141.2257  142.0646  165.4322 C.ar    1  UNL1        0.1206
     21 C         140.6591  142.5337  166.7395 C.ar    1  UNL1        0.0427
     22 C         141.1137  141.5852  167.8089 C.ar    1  UNL1        0.0979
     23 C         140.4661  144.0328  169.9254 C.3     1  UNL1        0.0067
     24 C         140.0177  142.6014  169.9339 C.3     1  UNL1        0.0474
     25 C         141.2212  145.1404  157.6676 C.3     1  UNL1        0.0266
     26 C         142.1457  144.8248  156.5293 C.3     1  UNL1        0.0218
     27 C         141.9431  145.4793  155.1949 C.3     1  UNL1        0.0725
     28 N         140.8159  146.4493  154.9988 N.3     1  UNL1       -0.2715
     29 C         140.6133  147.1037  153.6644 C.3     1  UNL1        0.0896
     30 C         139.8914  146.7649  156.1370 C.3     1  UNL1        0.0725
     31 C         140.0940  146.1104  157.4714 C.3     1  UNL1        0.0218
@<TRIPOS>BOND
     1    23    24    1
     2    24    13    1
     3    13    14   ar
     4    14    15   ar
     5    15    16    1
     6    15    17   ar
     7    17    18   ar
     8    18    19   ar
     9    19    20   ar
    10    20     1    1
    11     1     2   ar
    12     2     3   ar
    13     3     4    2
    14     3     5   ar
    15     5     6   ar
    16     6     7   ar
    17     7    25    1
    18    25    26    1
    19    26    27    1
    20    27    28    1
    21    28    29    1
    22    28    30    1
    23    30    31    1
    24     7     8   ar
    25     8     9   ar
    26     9    10    1
    27     9    11   ar
    28    11    12   ar
    29    20    21   ar
    30    21    22   ar
    31    22    13   ar
    32    22    18   ar
    33    12     1   ar
    34    11     5   ar
    35    31    25    1
@<TRIPOS>MOLECULE
*****
 31 35 0 0 0
SMALL
GASTEIGER

@<TRIPOS>ATOM
      1 C         141.2708  144.6576  160.0676 C.ar    1  UNL1        0.1070
      2 C         140.0153  144.9843  160.8205 C.ar    1  UNL1        0.0818
      3 C         139.9086  144.6544  162.2799 C.ar    1  UNL1        0.2675
      4 O         138.6531  144.9811  163.0329 O.2     1  UNL1       -0.2665
      5 N         141.0575  143.9979  162.9863 N.ar    1  UNL1       -0.2583
      6 C         140.9508  143.6680  164.4458 C.ar    1  UNL1        0.0800
      7 C         142.0997  143.0114  165.1522 C.ar    1  UNL1       -0.0050
      8 C         143.3552  142.6847  164.3992 C.ar    1  UNL1       -0.0041
      9 C         143.4619  143.0146  162.9398 C.ar    1  UNL1        0.0124
     10 C         144.7174  142.6879  162.1869 C.3     1  UNL1        0.0342
     11 C         142.3130  143.6712  162.2334 C.ar    1  UNL1        0.1459
     12 N         142.4196  144.0010  160.7740 N.ar    1  UNL1       -0.2265
     13 C         140.4300  146.6684  155.2112 C.ar    1  UNL1        0.0763
     14 N         141.1243  146.5103  153.8910 N.ar    1  UNL1       -0.2509
     15 C         142.3282  145.6226  153.7783 C.ar    1  UNL1        0.0781
     16 C         143.0225  145.4644  152.4581 C.3     1  UNL1        0.0537
     17 C         142.8378  144.8930  154.9859 C.ar    1  UNL1        0.1150
     18 N         142.1435  145.0512  156.3061 N.ar    1  UNL1       -0.2258
     19 N         142.4141  144.4632  157.6592 N.ar    1  UNL1       -0.1634
     20 C         141.3774  144.9874  158.6082 C.ar    1  UNL1        0.1206
     21 C         140.4662  145.8995  157.8415 C.ar    1  UNL1        0.0427
     22 C         140.9396  145.9389  156.4187 C.ar    1  UNL1        0.0979
     23 C         139.2886  148.9709  154.8292 C.3     1  UNL1        0.0067
     24 C         139.2262  147.5561  155.3239 C.3     1  UNL1        0.0474
     25 C         141.9931  142.6816  166.6115 C.3     1  UNL1        0.0266
     26 C         143.2292  142.3707  167.4025 C.3     1  UNL1        0.0218
     27 C         143.1225  142.0408  168.8618 C.3     1  UNL1        0.0725
     28 N         141.7799  142.0218  169.5303 N.3     1  UNL1       -0.2715
     29 C         141.6732  141.6920  170.9897 C.3     1  UNL1        0.0896
     30 C         140.5438  142.3327  168.7395 C.3     1  UNL1        0.0725
     31 C         140.6504  142.6626  167.2800 C.3     1  UNL1        0.0218
@<TRIPOS>BOND
     1    23    24    1
     2    24    13    1
     3    13    14   ar
     4    14    15   ar
     5    15    16    1
     6    15    17   ar
     7    17    18   ar
     8    18    19   ar
     9    19    20   ar
    10    20     1    1
    11     1     2   ar
    12     2     3   ar
    13     3     4    2
    14     3     5   ar
    15     5     6   ar
    16     6     7   ar
    17     7    25    1
    18    25    26    1
    19    26    27    1
    20    27    28    1
    21    28    29    1
    22    28    30    1
    23    30    31    1
    24     7     8   ar
    25     8     9   ar
    26     9    10    1
    27     9    11   ar
    28    11    12   ar
    29    20    21   ar
    30    21    22   ar
    31    22    13   ar
    32    22    18   ar
    33    12     1   ar
    34    11     5   ar
    35    31    25    1
@<TRIPOS>MOLECULE
*****
 31 35 0 0 0
SMALL
GASTEIGER

@<TRIPOS>ATOM
      1 C         142.5160  138.2953  160.3964 C.ar    1  UNL1        0.1070
      2 C         143.7329  138.9183  161.0136 C.ar    1  UNL1        0.0818
      3 C         143.7147  139.3310  162.4556 C.ar    1  UNL1        0.2675
      4 O         144.9317  139.9539  163.0728 O.2     1  UNL1       -0.2665
      5 N         142.4796  139.1207  163.2803 N.ar    1  UNL1       -0.2583
      6 C         142.4615  139.5334  164.7224 C.ar    1  UNL1        0.0800
      7 C         141.2264  139.3231  165.5472 C.ar    1  UNL1       -0.0050
      8 C         140.0094  138.7002  164.9299 C.ar    1  UNL1       -0.0041
      9 C         140.0276  138.2875  163.4880 C.ar    1  UNL1        0.0124
     10 C         138.8106  137.6645  162.8708 C.3     1  UNL1        0.0342
     11 C         141.2627  138.4977  162.6632 C.ar    1  UNL1        0.1459
     12 N         141.2808  138.0851  161.2212 N.ar    1  UNL1       -0.2265
     13 C         143.1448  135.5569  155.8753 C.ar    1  UNL1        0.0763
     14 N         142.8770  135.8660  154.4322 N.ar    1  UNL1       -0.2509
     15 C         142.3099  137.1991  154.0434 C.ar    1  UNL1        0.0781
     16 C         142.0421  137.5083  152.6003 C.3     1  UNL1        0.0537
     17 C         142.0106  138.2232  155.0979 C.ar    1  UNL1        0.1150
     18 N         142.2785  137.9141  156.5410 N.ar    1  UNL1       -0.2258
     19 N         142.0860  138.7186  157.7923 N.ar    1  UNL1       -0.1634
     20 C         142.5341  137.8826  158.9544 C.ar    1  UNL1        0.1206
     21 C         143.0035  136.5614  158.4213 C.ar    1  UNL1        0.0427
     22 C         142.8456  136.5808  156.9297 C.ar    1  UNL1        0.0979
     23 C         142.7928  133.0873  156.6015 C.3     1  UNL1        0.0067
     24 C         143.7119  134.2237  156.2640 C.3     1  UNL1        0.0474
     25 C         141.2082  139.7358  166.9891 C.3     1  UNL1        0.0266
     26 C         139.9101  140.0921  167.6510 C.3     1  UNL1        0.0218
     27 C         139.8919  140.5047  169.0930 C.3     1  UNL1        0.0725
     28 N         141.1718  140.5612  169.8732 N.3     1  UNL1       -0.2715
     29 C         141.1536  140.9739  171.3151 C.3     1  UNL1        0.0896
     30 C         142.4699  140.2050  169.2114 C.3     1  UNL1        0.0725
     31 C         142.4881  139.7923  167.7693 C.3     1  UNL1        0.0218
@<TRIPOS>BOND
     1    23    24    1
     2    24    13    1
     3    13    14   ar
     4    14    15   ar
     5    15    16    1
     6    15    17   ar
     7    17    18   ar
     8    18    19   ar
     9    19    20   ar
    10    20     1    1
    11     1     2   ar
    12     2     3   ar
    13     3     4    2
    14     3     5   ar
    15     5     6   ar
    16     6     7   ar
    17     7    25    1
    18    25    26    1
    19    26    27    1
    20    27    28    1
    21    28    29    1
    22    28    30    1
    23    30    31    1
    24     7     8   ar
    25     8     9   ar
    26     9    10    1
    27     9    11   ar
    28    11    12   ar
    29    20    21   ar
    30    21    22   ar
    31    22    13   ar
    32    22    18   ar
    33    12     1   ar
    34    11     5   ar
    35    31    25    1
@<TRIPOS>MOLECULE
*****
 31 35 0 0 0
SMALL
GASTEIGER

@<TRIPOS>ATOM
      1 C         141.5364  144.0814  160.4932 C.ar    1  UNL1        0.1070
      2 C         142.8509  143.7127  161.1146 C.ar    1  UNL1        0.0818
      3 C         142.9020  143.2433  162.5383 C.ar    1  UNL1        0.2675
      4 O         144.2165  142.8745  163.1598 O.2     1  UNL1       -0.2665
      5 N         141.6386  143.1425  163.3406 N.ar    1  UNL1       -0.2583
      6 C         141.6897  142.6729  164.7644 C.ar    1  UNL1        0.0800
      7 C         140.4263  142.5721  165.5666 C.ar    1  UNL1       -0.0050
      8 C         139.1118  142.9409  164.9452 C.ar    1  UNL1       -0.0041
      9 C         139.0607  143.4104  163.5215 C.ar    1  UNL1        0.0124
     10 C         137.7462  143.7791  162.9001 C.3     1  UNL1        0.0342
     11 C         140.3241  143.5112  162.7192 C.ar    1  UNL1        0.1459
     12 N         140.2730  143.9807  161.2955 N.ar    1  UNL1       -0.2265
     13 C         140.2000  146.5674  155.9800 C.ar    1  UNL1        0.0763
     14 N         140.7369  146.5304  154.5799 N.ar    1  UNL1       -0.2509
     15 C         141.8991  145.6431  154.2455 C.ar    1  UNL1        0.0781
     16 C         142.4360  145.6061  152.8454 C.3     1  UNL1        0.0537
     17 C         142.5246  144.7928  155.3113 C.ar    1  UNL1        0.1150
     18 N         141.9878  144.8298  156.7114 N.ar    1  UNL1       -0.2258
     19 N         142.3955  144.1091  157.9621 N.ar    1  UNL1       -0.1634
     20 C         141.4853  144.5510  159.0695 C.ar    1  UNL1        0.1206
     21 C         140.5149  145.5448  158.5031 C.ar    1  UNL1        0.0427
     22 C         140.8254  145.7172  157.0458 C.ar    1  UNL1        0.0979
     23 C         138.8034  148.7114  155.5296 C.3     1  UNL1        0.0067
     24 C         139.0378  147.4547  156.3144 C.3     1  UNL1        0.0474
     25 C         140.4774  142.1026  166.9903 C.3     1  UNL1        0.0266
     26 C         140.4088  143.0974  168.1110 C.3     1  UNL1        0.0218
     27 C         140.4598  142.6279  169.5347 C.3     1  UNL1        0.0725
     28 N         140.5795  141.1637  169.8378 N.3     1  UNL1       -0.2715
     29 C         140.6306  140.6942  171.2615 C.3     1  UNL1        0.0896
     30 C         140.6481  140.1690  168.7172 C.3     1  UNL1        0.0725
     31 C         140.5970  140.6385  167.2934 C.3     1  UNL1        0.0218
@<TRIPOS>BOND
     1    23    24    1
     2    24    13    1
     3    13    14   ar
     4    14    15   ar
     5    15    16    1
     6    15    17   ar
     7    17    18   ar
     8    18    19   ar
     9    19    20   ar
    10    20     1    1
    11     1     2   ar
    12     2     3   ar
    13     3     4    2
    14     3     5   ar
    15     5     6   ar
    16     6     7   ar
    17     7    25    1
    18    25    26    1
    19    26    27    1
    20    27    28    1
    21    28    29    1
    22    28    30    1
    23    30    31    1
    24     7     8   ar
    25     8     9   ar
    26     9    10    1
    27     9    11   ar
    28    11    12   ar
    29    20    21   ar
    30    21    22   ar
    31    22    13   ar
    32    22    18   ar
    33    12     1   ar
    34    11     5   ar
    35    31    25    1
@<TRIPOS>MOLECULE
*****
 31 35 0 0 0
SMALL
GASTEIGER

@<TRIPOS>ATOM
      1 C         138.4720  141.1372  160.1863 C.ar    1  UNL1        0.1070
      2 C         139.1924  139.8848  160.5894 C.ar    1  UNL1        0.0818
      3 C         139.6640  139.7128  162.0029 C.ar    1  UNL1        0.2675
      4 O         140.3845  138.4603  162.4060 O.2     1  UNL1       -0.2665
      5 N         139.4151  140.7931  163.0133 N.ar    1  UNL1       -0.2583
      6 C         139.8867  140.6210  164.4269 C.ar    1  UNL1        0.0800
      7 C         139.6378  141.7013  165.4373 C.ar    1  UNL1       -0.0050
      8 C         138.9173  142.9537  165.0342 C.ar    1  UNL1       -0.0041
      9 C         138.4458  143.1258  163.6207 C.ar    1  UNL1        0.0124
     10 C         137.7253  144.3781  163.2176 C.3     1  UNL1        0.0342
     11 C         138.6947  142.0454  162.6103 C.ar    1  UNL1        0.1459
     12 N         138.2231  142.2175  161.1968 N.ar    1  UNL1       -0.2265
     13 C         137.3314  143.1493  155.3920 C.ar    1  UNL1        0.0763
     14 N         136.6905  142.5854  154.1586 N.ar    1  UNL1       -0.2509
     15 C         136.2256  141.1594  154.1401 C.ar    1  UNL1        0.0781
     16 C         135.5847  140.5955  152.9067 C.3     1  UNL1        0.0537
     17 C         136.4015  140.2973  155.3550 C.ar    1  UNL1        0.1150
     18 N         137.0423  140.8612  156.5884 N.ar    1  UNL1       -0.2258
     19 N         137.3471  140.2568  157.9270 N.ar    1  UNL1       -0.1634
     20 C         138.0004  141.3093  158.7728 C.ar    1  UNL1        0.1206
     21 C         138.0994  142.5642  157.9569 C.ar    1  UNL1        0.0427
     22 C         137.5073  142.2873  156.6069 C.ar    1  UNL1        0.0979
     23 C         139.0189  144.9756  154.6391 C.3     1  UNL1        0.0067
     24 C         137.7964  144.5753  155.4106 C.3     1  UNL1        0.0474
     25 C         140.1093  141.5292  166.8508 C.3     1  UNL1        0.0266
     26 C         139.9718  140.1992  167.5307 C.3     1  UNL1        0.0218
     27 C         140.4434  140.0271  168.9442 C.3     1  UNL1        0.0725
     28 N         141.0524  141.1850  169.6779 N.3     1  UNL1       -0.2715
     29 C         141.5239  141.0130  171.0914 C.3     1  UNL1        0.0896
     30 C         141.1899  142.5150  168.9981 C.3     1  UNL1        0.0725
     31 C         140.7183  142.6871  167.5845 C.3     1  UNL1        0.0218
@<TRIPOS>BOND
     1    23    24    1
     2    24    13    1
     3    13    14   ar
     4    14    15   ar
     5    15    16    1
     6    15    17   ar
     7    17    18   ar
     8    18    19   ar
     9    19    20   ar
    10    20     1    1
    11     1     2   ar
    12     2     3   ar
    13     3     4    2
    14     3     5   ar
    15     5     6   ar
    16     6     7   ar
    17     7    25    1
    18    25    26    1
    19    26    27    1
    20    27    28    1
    21    28    29    1
    22    28    30    1
    23    30    31    1
    24     7     8   ar
    25     8     9   ar
    26     9    10    1
    27     9    11   ar
    28    11    12   ar
    29    20    21   ar
    30    21    22   ar
    31    22    13   ar
    32    22    18   ar
    33    12     1   ar
    34    11     5   ar
    35    31    25    1
@<TRIPOS>MOLECULE
*****
 31 35 0 0 0
SMALL
GASTEIGER

@<TRIPOS>ATOM
      1 C         141.9965  142.2825  163.1439 C.ar    1  UNL1        0.1070
      2 C         142.7992  141.5149  162.1357 C.ar    1  UNL1        0.0818
      3 C         142.8280  141.9603  160.7037 C.ar    1  UNL1        0.2675
      4 O         143.6307  141.1927  159.6955 O.2     1  UNL1       -0.2665
      5 N         142.0540  143.1732  160.2798 N.ar    1  UNL1       -0.2583
      6 C         142.0828  143.6186  158.8477 C.ar    1  UNL1        0.0800
      7 C         141.3088  144.8315  158.4238 C.ar    1  UNL1       -0.0050
      8 C         140.5060  145.5991  159.4320 C.ar    1  UNL1       -0.0041
      9 C         140.4773  145.1538  160.8640 C.ar    1  UNL1        0.0124
     10 C         139.6745  145.9214  161.8721 C.3     1  UNL1        0.0342
     11 C         141.2513  143.9408  161.2879 C.ar    1  UNL1        0.1459
     12 N         141.2225  143.4955  162.7200 N.ar    1  UNL1       -0.2265
     13 C         141.0887  141.9765  168.3800 C.ar    1  UNL1        0.0763
     14 N         141.4687  140.9858  169.4402 N.ar    1  UNL1       -0.2509
     15 C         142.2784  139.7756  169.0802 C.ar    1  UNL1        0.0781
     16 C         142.6584  138.7848  170.1404 C.3     1  UNL1        0.0537
     17 C         142.7083  139.5561  167.6599 C.ar    1  UNL1        0.1150
     18 N         142.3283  140.5468  166.5997 N.ar    1  UNL1       -0.2258
     19 N         142.6059  140.5964  165.1265 N.ar    1  UNL1       -0.1634
     20 C         141.9677  141.8372  164.5760 C.ar    1  UNL1        0.1206
     21 C         141.2957  142.5545  165.7091 C.ar    1  UNL1        0.0427
     22 C         141.5185  141.7571  166.9598 C.ar    1  UNL1        0.0979
     23 C         140.6077  143.9681  169.9776 C.3     1  UNL1        0.0067
     24 C         140.2790  143.1868  168.7400 C.3     1  UNL1        0.0474
     25 C         141.3375  145.2769  156.9917 C.3     1  UNL1        0.0266
     26 C         142.3323  144.6803  156.0405 C.3     1  UNL1        0.0218
     27 C         142.3610  145.1257  154.6085 C.3     1  UNL1        0.0725
     28 N         141.3950  146.1676  154.1275 N.3     1  UNL1       -0.2715
     29 C         141.4238  146.6129  152.6955 C.3     1  UNL1        0.0896
     30 C         140.4003  146.7641  155.0786 C.3     1  UNL1        0.0725
     31 C         140.3715  146.3188  156.5108 C.3     1  UNL1        0.0218
@<TRIPOS>BOND
     1    23    24    1
     2    24    13    1
     3    13    14   ar
     4    14    15   ar
     5    15    16    1
     6    15    17   ar
     7    17    18   ar
     8    18    19   ar
     9    19    20   ar
    10    20     1    1
    11     1     2   ar
    12     2     3   ar
    13     3     4    2
    14     3     5   ar
    15     5     6   ar
    16     6     7   ar
    17     7    25    1
    18    25    26    1
    19    26    27    1
    20    27    28    1
    21    28    29    1
    22    28    30    1
    23    30    31    1
    24     7     8   ar
    25     8     9   ar
    26     9    10    1
    27     9    11   ar
    28    11    12   ar
    29    20    21   ar
    30    21    22   ar
    31    22    13   ar
    32    22    18   ar
    33    12     1   ar
    34    11     5   ar
    35    31    25    1
@<TRIPOS>MOLECULE
*****
 31 35 0 0 0
SMALL
GASTEIGER

@<TRIPOS>ATOM
      1 C         140.5023  141.9754  162.9697 C.ar    1  UNL1        0.1070
      2 C         140.9598  140.9795  161.9455 C.ar    1  UNL1        0.0818
      3 C         141.1711  141.4090  160.5240 C.ar    1  UNL1        0.2675
      4 O         141.6286  140.4132  159.4997 O.2     1  UNL1       -0.2665
      5 N         140.9249  142.8343  160.1266 N.ar    1  UNL1       -0.2583
      6 C         141.1362  143.2637  158.7049 C.ar    1  UNL1        0.0800
      7 C         140.8900  144.6890  158.3075 C.ar    1  UNL1       -0.0050
      8 C         140.4324  145.6849  159.3318 C.ar    1  UNL1       -0.0041
      9 C         140.2212  145.2554  160.7533 C.ar    1  UNL1        0.0124
     10 C         139.7637  146.2512  161.7775 C.3     1  UNL1        0.0342
     11 C         140.4674  143.8301  161.1507 C.ar    1  UNL1        0.1459
     12 N         140.2561  143.4007  162.5723 N.ar    1  UNL1       -0.2265
     13 C         138.7387  139.5350  167.3594 C.ar    1  UNL1        0.0763
     14 N         139.0778  139.6521  168.8158 N.ar    1  UNL1       -0.2509
     15 C         140.1218  140.6303  169.2665 C.ar    1  UNL1        0.0781
     16 C         140.4608  140.7475  170.7230 C.3     1  UNL1        0.0537
     17 C         140.8269  141.4913  168.2607 C.ar    1  UNL1        0.1150
     18 N         140.4878  141.3742  166.8043 N.ar    1  UNL1       -0.2258
     19 N         141.0114  142.0849  165.5915 N.ar    1  UNL1       -0.1634
     20 C         140.2910  141.5459  164.3913 C.ar    1  UNL1        0.1206
     21 C         139.3221  140.5021  164.8623 C.ar    1  UNL1        0.0427
     22 C         139.4438  140.3959  166.3536 C.ar    1  UNL1        0.0979
     23 C         138.1035  137.2825  166.2310 C.3     1  UNL1        0.0067
     24 C         137.6947  138.5568  166.9086 C.3     1  UNL1        0.0474
     25 C         141.1013  145.1185  156.8860 C.3     1  UNL1        0.0266
     26 C         142.2603  144.5764  156.1031 C.3     1  UNL1        0.0218
     27 C         142.4716  145.0059  154.6815 C.3     1  UNL1        0.0725
     28 N         141.5239  145.9774  154.0428 N.3     1  UNL1       -0.2715
     29 C         141.7352  146.4069  152.6212 C.3     1  UNL1        0.0896
     30 C         140.3649  146.5195  154.8256 C.3     1  UNL1        0.0725
     31 C         140.1535  146.0900  156.2472 C.3     1  UNL1        0.0218
@<TRIPOS>BOND
     1    23    24    1
     2    24    13    1
     3    13    14   ar
     4    14    15   ar
     5    15    16    1
     6    15    17   ar
     7    17    18   ar
     8    18    19   ar
     9    19    20   ar
    10    20     1    1
    11     1     2   ar
    12     2     3   ar
    13     3     4    2
    14     3     5   ar
    15     5     6   ar
    16     6     7   ar
    17     7    25    1
    18    25    26    1
    19    26    27    1
    20    27    28    1
    21    28    29    1
    22    28    30    1
    23    30    31    1
    24     7     8   ar
    25     8     9   ar
    26     9    10    1
    27     9    11   ar
    28    11    12   ar
    29    20    21   ar
    30    21    22   ar
    31    22    13   ar
    32    22    18   ar
    33    12     1   ar
    34    11     5   ar
    35    31    25    1
@<TRIPOS>MOLECULE
*****
 31 35 0 0 0
SMALL
GASTEIGER

@<TRIPOS>ATOM
      1 C         141.5357  144.3397  160.7962 C.ar    1  UNL1        0.1070
      2 C         142.8713  143.8031  161.2182 C.ar    1  UNL1        0.0818
      3 C         143.0663  143.2901  162.6142 C.ar    1  UNL1        0.2675
      4 O         144.4020  142.7535  163.0363 O.2     1  UNL1       -0.2665
      5 N         141.9257  143.3137  163.5881 N.ar    1  UNL1       -0.2583
      6 C         142.1208  142.8007  164.9841 C.ar    1  UNL1        0.0800
      7 C         140.9802  142.8243  165.9580 C.ar    1  UNL1       -0.0050
      8 C         139.6445  143.3609  165.5359 C.ar    1  UNL1       -0.0041
      9 C         139.4495  143.8739  164.1400 C.ar    1  UNL1        0.0124
     10 C         138.1139  144.4104  163.7179 C.3     1  UNL1        0.0342
     11 C         140.5901  143.8503  163.1660 C.ar    1  UNL1        0.1459
     12 N         140.3951  144.3633  161.7701 N.ar    1  UNL1       -0.2265
     13 C         141.9791  145.1968  155.5613 C.ar    1  UNL1        0.0763
     14 N         141.2564  146.0858  154.5932 N.ar    1  UNL1       -0.2509
     15 C         140.1488  146.9754  155.0748 C.ar    1  UNL1        0.0781
     16 C         139.4261  147.8644  154.1066 C.3     1  UNL1        0.0537
     17 C         139.7639  146.9759  156.5246 C.ar    1  UNL1        0.1150
     18 N         140.4866  146.0869  157.4928 N.ar    1  UNL1       -0.2258
     19 N         140.3299  145.8739  158.9693 N.ar    1  UNL1       -0.1634
     20 C         141.3406  144.8527  159.4001 C.ar    1  UNL1        0.1206
     21 C         142.1220  144.4346  158.1899 C.ar    1  UNL1        0.0427
     22 C         141.5942  145.1973  157.0111 C.ar    1  UNL1        0.0979
     23 C         143.8713  144.6814  153.8572 C.3     1  UNL1        0.0067
     24 C         143.0866  144.3073  155.0797 C.3     1  UNL1        0.0474
     25 C         141.1753  142.3113  167.3540 C.3     1  UNL1        0.0266
     26 C         142.0667  141.1305  167.6015 C.3     1  UNL1        0.0218
     27 C         142.2617  140.6175  168.9974 C.3     1  UNL1        0.0725
     28 N         141.5654  141.2853  170.1460 N.3     1  UNL1       -0.2715
     29 C         141.7604  140.7723  171.5420 C.3     1  UNL1        0.0896
     30 C         140.6740  142.4660  169.8986 C.3     1  UNL1        0.0725
     31 C         140.4789  142.9791  168.5026 C.3     1  UNL1        0.0218
@<TRIPOS>BOND
     1    23    24    1
     2    24    13    1
     3    13    14   ar
     4    14    15   ar
     5    15    16    1
     6    15    17   ar
     7    17    18   ar
     8    18    19   ar
     9    19    20   ar
    10    20     1    1
    11     1     2   ar
    12     2     3   ar
    13     3     4    2
    14     3     5   ar
    15     5     6   ar
    16     6     7   ar
    17     7    25    1
    18    25    26    1
    19    26    27    1
    20    27    28    1
    21    28    29    1
    22    28    30    1
    23    30    31    1
    24     7     8   ar
    25     8     9   ar
    26     9    10    1
    27     9    11   ar
    28    11    12   ar
    29    20    21   ar
    30    21    22   ar
    31    22    13   ar
    32    22    18   ar
    33    12     1   ar
    34    11     5   ar
    35    31    25    1
