@<TRIPOS>MOLECULE
*****
 31 34 0 0 0
SMALL
GASTEIGER

@<TRIPOS>ATOM
      1 C         142.4949  139.7188  158.9385 C.2     1  UNL1        0.3047
      2 O         141.4512  140.7252  158.5541 O.2     1  UNL1       -0.2647
      3 N         143.1841  139.8230  160.2667 N.am    1  UNL1       -0.2647
      4 C         144.2423  139.0324  160.9774 C.3     1  UNL1        0.1391
      5 C         144.1588  139.9704  162.1451 C.3     1  UNL1        0.2052
      6 C         143.1006  140.7610  161.4343 C.3     1  UNL1        0.1391
      7 C         142.9620  136.4282  156.9336 C.ar    1  UNL1        0.2501
      8 N         143.8280  137.3701  156.1508 N.ar    1  UNL1       -0.1068
      9 N         143.7585  138.7174  156.8065 N.ar    1  UNL1       -0.1021
     10 C         142.8495  138.6082  157.9946 C.ar    1  UNL1        0.3043
     11 O         142.3572  137.1935  158.0732 O.2     1  UNL1       -0.4122
     12 C         142.2952  132.0720  156.0234 C.ar    1  UNL1        0.1387
     13 C         141.5358  133.1211  155.2667 C.ar    1  UNL1        0.0371
     14 C         141.7580  134.5732  155.5701 C.ar    1  UNL1        0.0078
     15 C         142.7397  134.9762  156.6302 C.ar    1  UNL1        0.0553
     16 C         143.4991  133.9271  157.3869 C.ar    1  UNL1        0.0078
     17 C         143.2768  132.4750  157.0835 C.ar    1  UNL1        0.0371
     18 C         141.3602  130.2169  154.4632 C.3     1  UNL1        0.2525
     19 O         142.0729  130.6199  155.7199 O.3     1  UNL1       -0.4714
     20 O         144.8479  140.0746  163.4732 O.3     1  UNL1       -0.4756
     21 C         144.0446  140.0426  164.7396 C.ar    1  UNL1        0.1408
     22 C         143.8285  138.7438  165.4582 C.ar    1  UNL1        0.0368
     23 C         143.0251  138.7119  166.7245 C.ar    1  UNL1        0.0024
     24 C         142.4379  139.9788  167.2723 C.ar    1  UNL1        0.0216
     25 C         142.6540  141.2776  166.5538 C.ar    1  UNL1        0.1405
     26 F         142.0667  142.5445  167.1016 F       1  UNL1       -0.2044
     27 C         143.4573  141.3096  165.2874 C.ar    1  UNL1        0.0662
     28 C         141.6345  139.9468  168.5386 C.3     1  UNL1        0.1015
     29 N         140.1397  140.0575  168.4815 N.3     1  UNL1       -0.2665
     30 C         139.3712  140.4725  169.7011 C.3     1  UNL1        0.0899
     31 C         139.4134  139.7533  167.2048 C.3     1  UNL1        0.0899
@<TRIPOS>BOND
     1    18    19    1
     2    19    12    1
     3    12    13   ar
     4    13    14   ar
     5    14    15   ar
     6    15     7    1
     7     7     8   ar
     8     8     9   ar
     9     9    10   ar
    10    10     1    1
    11     1     2    2
    12     1     3   am
    13     3     4    1
    14     4     5    1
    15     5    20    1
    16    20    21    1
    17    21    22   ar
    18    22    23   ar
    19    23    24   ar
    20    24    28    1
    21    28    29    1
    22    29    30    1
    23    29    31    1
    24    24    25   ar
    25    25    26    1
    26    25    27   ar
    27     5     6    1
    28    10    11   ar
    29    15    16   ar
    30    16    17   ar
    31    17    12   ar
    32    11     7   ar
    33     6     3    1
    34    27    21   ar
@<TRIPOS>MOLECULE
*****
 31 34 0 0 0
SMALL
GASTEIGER

@<TRIPOS>ATOM
      1 C         142.4409  138.5481  158.2696 C.2     1  UNL1        0.3047
      2 O         143.7202  139.3269  158.3528 O.2     1  UNL1       -0.2647
      3 N         141.2556  138.9627  159.0901 N.am    1  UNL1       -0.2647
      4 C         139.8570  138.4506  159.2673 C.3     1  UNL1        0.1391
      5 C         139.5794  139.5491  160.2505 C.3     1  UNL1        0.2052
      6 C         140.9781  140.0611  160.0732 C.3     1  UNL1        0.1391
      7 C         142.7481  135.1807  156.3639 C.ar    1  UNL1        0.2501
      8 N         141.6571  135.8553  155.5863 N.ar    1  UNL1       -0.1068
      9 N         141.4092  137.1989  156.2055 N.ar    1  UNL1       -0.1021
     10 C         142.3470  137.3546  157.3658 C.ar    1  UNL1        0.3043
     11 O         143.1745  136.1073  157.4637 O.2     1  UNL1       -0.4122
     12 C         144.4440  131.0944  155.5416 C.ar    1  UNL1        0.1387
     13 C         144.8416  131.8354  156.7837 C.ar    1  UNL1        0.0371
     14 C         144.2762  133.1975  157.0578 C.ar    1  UNL1        0.0078
     15 C         143.3134  133.8186  156.0898 C.ar    1  UNL1        0.0553
     16 C         142.9158  133.0776  154.8477 C.ar    1  UNL1        0.0078
     17 C         143.4811  131.7155  154.5736 C.ar    1  UNL1        0.0371
     18 C         144.4796  128.5382  156.0047 C.3     1  UNL1        0.2525
     19 O         145.0093  129.7323  155.2675 O.3     1  UNL1       -0.4714
     20 O         138.3942  139.9636  161.0709 O.3     1  UNL1       -0.4756
     21 C         138.4143  139.7870  162.5604 C.ar    1  UNL1        0.1408
     22 C         138.0918  140.9451  163.4574 C.ar    1  UNL1        0.0368
     23 C         138.1120  140.7684  164.9468 C.ar    1  UNL1        0.0024
     24 C         138.4547  139.4336  165.5393 C.ar    1  UNL1        0.0216
     25 C         138.7772  138.2756  164.6422 C.ar    1  UNL1        0.1405
     26 F         139.1199  136.9408  165.2346 F       1  UNL1       -0.2044
     27 C         138.7570  138.4522  163.1527 C.ar    1  UNL1        0.0662
     28 C         138.4748  139.2570  167.0287 C.3     1  UNL1        0.1015
     29 N         139.5770  139.8689  167.8416 N.3     1  UNL1       -0.2665
     30 C         139.3072  140.3320  169.2427 C.3     1  UNL1        0.0899
     31 C         140.9489  140.0177  167.2536 C.3     1  UNL1        0.0899
@<TRIPOS>BOND
     1    18    19    1
     2    19    12    1
     3    12    13   ar
     4    13    14   ar
     5    14    15   ar
     6    15     7    1
     7     7     8   ar
     8     8     9   ar
     9     9    10   ar
    10    10     1    1
    11     1     2    2
    12     1     3   am
    13     3     4    1
    14     4     5    1
    15     5    20    1
    16    20    21    1
    17    21    22   ar
    18    22    23   ar
    19    23    24   ar
    20    24    28    1
    21    28    29    1
    22    29    30    1
    23    29    31    1
    24    24    25   ar
    25    25    26    1
    26    25    27   ar
    27     5     6    1
    28    10    11   ar
    29    15    16   ar
    30    16    17   ar
    31    17    12   ar
    32    11     7   ar
    33     6     3    1
    34    27    21   ar
@<TRIPOS>MOLECULE
*****
 31 34 0 0 0
SMALL
GASTEIGER

@<TRIPOS>ATOM
      1 C         140.5781  139.0809  160.6566 C.2     1  UNL1        0.3047
      2 O         139.4856  140.0608  160.3466 O.2     1  UNL1       -0.2647
      3 N         141.4441  138.5493  159.5532 N.am    1  UNL1       -0.2647
      4 C         142.5949  137.5904  159.4766 C.3     1  UNL1        0.1391
      5 C         142.6689  137.7977  157.9928 C.3     1  UNL1        0.2052
      6 C         141.5180  138.7566  158.0695 C.3     1  UNL1        0.1391
      7 C         141.0998  138.6532  164.4790 C.ar    1  UNL1        0.2501
      8 N         141.2063  137.2320  164.0111 N.ar    1  UNL1       -0.1068
      9 N         141.0239  137.2192  162.5223 N.ar    1  UNL1       -0.1021
     10 C         140.8046  138.6325  162.0700 C.ar    1  UNL1        0.3043
     11 O         140.8515  139.5187  163.2793 O.2     1  UNL1       -0.4122
     12 C         141.4617  140.0710  168.7344 C.ar    1  UNL1        0.1387
     13 C         142.6645  139.5319  168.0187 C.ar    1  UNL1        0.0371
     14 C         142.5439  139.0593  166.6002 C.ar    1  UNL1        0.0078
     15 C         141.2204  139.1258  165.8975 C.ar    1  UNL1        0.0553
     16 C         140.0175  139.6649  166.6132 C.ar    1  UNL1        0.0078
     17 C         140.1382  140.1376  168.0317 C.ar    1  UNL1        0.0371
     18 C         141.9324  141.9737  170.4398 C.3     1  UNL1        0.2525
     19 O         141.5823  140.5437  170.1529 O.3     1  UNL1       -0.4714
     20 O         143.5348  137.2661  156.8895 O.3     1  UNL1       -0.4756
     21 C         143.2234  135.9382  156.2651 C.ar    1  UNL1        0.1408
     22 C         142.9411  135.8486  154.7947 C.ar    1  UNL1        0.0368
     23 C         142.6297  134.5207  154.1703 C.ar    1  UNL1        0.0024
     24 C         142.6004  133.2825  155.0165 C.ar    1  UNL1        0.0216
     25 C         142.8826  133.3722  156.4869 C.ar    1  UNL1        0.1405
     26 F         142.8534  132.1339  157.3330 F       1  UNL1       -0.2044
     27 C         143.1941  134.7001  157.1113 C.ar    1  UNL1        0.0662
     28 C         142.2889  131.9547  154.3922 C.3     1  UNL1        0.1015
     29 N         143.3960  131.1100  153.8344 N.3     1  UNL1       -0.2665
     30 C         144.3477  130.4133  154.7613 C.3     1  UNL1        0.0899
     31 C         143.5514  130.9621  152.3498 C.3     1  UNL1        0.0899
@<TRIPOS>BOND
     1    18    19    1
     2    19    12    1
     3    12    13   ar
     4    13    14   ar
     5    14    15   ar
     6    15     7    1
     7     7     8   ar
     8     8     9   ar
     9     9    10   ar
    10    10     1    1
    11     1     2    2
    12     1     3   am
    13     3     4    1
    14     4     5    1
    15     5    20    1
    16    20    21    1
    17    21    22   ar
    18    22    23   ar
    19    23    24   ar
    20    24    28    1
    21    28    29    1
    22    29    30    1
    23    29    31    1
    24    24    25   ar
    25    25    26    1
    26    25    27   ar
    27     5     6    1
    28    10    11   ar
    29    15    16   ar
    30    16    17   ar
    31    17    12   ar
    32    11     7   ar
    33     6     3    1
    34    27    21   ar
@<TRIPOS>MOLECULE
*****
 31 34 0 0 0
SMALL
GASTEIGER

@<TRIPOS>ATOM
      1 C         142.5582  139.8570  157.9500 C.2     1  UNL1        0.3047
      2 O         142.1585  141.0579  157.1449 O.2     1  UNL1       -0.2647
      3 N         143.2349  140.0348  159.2768 N.am    1  UNL1       -0.2647
      4 C         143.7634  139.1074  160.3305 C.3     1  UNL1        0.1391
      5 C         144.1918  140.2863  161.1532 C.3     1  UNL1        0.2052
      6 C         143.6633  141.2137  160.0994 C.3     1  UNL1        0.1391
      7 C         142.5454  136.1424  156.8243 C.ar    1  UNL1        0.2501
      8 N         141.1642  136.5707  156.4260 N.ar    1  UNL1       -0.1068
      9 N         141.0008  138.0143  156.7992 N.ar    1  UNL1       -0.1021
     10 C         142.2811  138.4782  157.4281 C.ar    1  UNL1        0.3043
     11 O         143.2357  137.3213  157.4436 O.2     1  UNL1       -0.4122
     12 C         144.3087  132.0408  156.2601 C.ar    1  UNL1        0.1387
     13 C         144.4752  132.7553  157.5684 C.ar    1  UNL1        0.0371
     14 C         143.8874  134.1225  157.7565 C.ar    1  UNL1        0.0078
     15 C         143.1332  134.7752  156.6362 C.ar    1  UNL1        0.0553
     16 C         142.9668  134.0607  155.3279 C.ar    1  UNL1        0.0078
     17 C         143.5545  132.6935  155.1398 C.ar    1  UNL1        0.0371
     18 C         144.7112  129.9501  154.7713 C.3     1  UNL1        0.2525
     19 O         144.8965  130.6737  156.0721 O.3     1  UNL1       -0.4714
     20 O         144.8685  140.4641  162.4800 O.3     1  UNL1       -0.4756
     21 C         144.0861  140.2986  163.7491 C.ar    1  UNL1        0.1408
     22 C         143.0206  141.2914  164.1082 C.ar    1  UNL1        0.0368
     23 C         142.2383  141.1259  165.3773 C.ar    1  UNL1        0.0024
     24 C         142.5214  139.9676  166.2872 C.ar    1  UNL1        0.0216
     25 C         143.5868  138.9747  165.9281 C.ar    1  UNL1        0.1405
     26 F         143.8700  137.8164  166.8381 F       1  UNL1       -0.2044
     27 C         144.3693  139.1402  164.6590 C.ar    1  UNL1        0.0662
     28 C         141.7391  139.8021  167.5563 C.3     1  UNL1        0.1015
     29 N         142.3987  140.0460  168.8812 N.3     1  UNL1       -0.2665
     30 C         142.9859  141.3913  169.1903 C.3     1  UNL1        0.0899
     31 C         142.4712  138.9447  169.8970 C.3     1  UNL1        0.0899
@<TRIPOS>BOND
     1    18    19    1
     2    19    12    1
     3    12    13   ar
     4    13    14   ar
     5    14    15   ar
     6    15     7    1
     7     7     8   ar
     8     8     9   ar
     9     9    10   ar
    10    10     1    1
    11     1     2    2
    12     1     3   am
    13     3     4    1
    14     4     5    1
    15     5    20    1
    16    20    21    1
    17    21    22   ar
    18    22    23   ar
    19    23    24   ar
    20    24    28    1
    21    28    29    1
    22    29    30    1
    23    29    31    1
    24    24    25   ar
    25    25    26    1
    26    25    27   ar
    27     5     6    1
    28    10    11   ar
    29    15    16   ar
    30    16    17   ar
    31    17    12   ar
    32    11     7   ar
    33     6     3    1
    34    27    21   ar
@<TRIPOS>MOLECULE
*****
 31 34 0 0 0
SMALL
GASTEIGER

@<TRIPOS>ATOM
      1 C         138.4455  138.9146  161.2239 C.2     1  UNL1        0.3047
      2 O         137.0371  139.2040  160.7966 O.2     1  UNL1       -0.2647
      3 N         139.5191  138.7295  160.1928 N.am    1  UNL1       -0.2647
      4 C         140.9898  138.4378  160.2336 C.3     1  UNL1        0.1391
      5 C         141.0373  138.4677  158.7346 C.3     1  UNL1        0.2052
      6 C         139.5665  138.7594  158.6939 C.3     1  UNL1        0.1391
      7 C         139.3564  139.3962  164.9661 C.ar    1  UNL1        0.2501
      8 N         139.2346  137.9032  164.8872 N.ar    1  UNL1       -0.1068
      9 N         138.8786  137.5410  163.4758 N.ar    1  UNL1       -0.1021
     10 C         138.7803  138.8102  162.6824 C.ar    1  UNL1        0.3043
     11 O         139.0756  139.9567  163.6034 O.2     1  UNL1       -0.4122
     12 C         140.3838  141.7756  168.6448 C.ar    1  UNL1        0.1387
     13 C         139.6377  140.4807  168.7733 C.ar    1  UNL1        0.0371
     14 C         139.2952  139.6876  167.5470 C.ar    1  UNL1        0.0078
     15 C         139.6989  140.1893  166.1923 C.ar    1  UNL1        0.0553
     16 C         140.4450  141.4842  166.0639 C.ar    1  UNL1        0.0078
     17 C         140.7874  142.2773  167.2901 C.ar    1  UNL1        0.0371
     18 C         140.3997  144.0314  169.9336 C.3     1  UNL1        0.2525
     19 O         140.7262  142.5687  169.8710 O.3     1  UNL1       -0.4714
     20 O         142.1108  138.2826  157.7035 O.3     1  UNL1       -0.4756
     21 C         142.2218  136.9838  156.9612 C.ar    1  UNL1        0.1408
     22 C         141.2894  136.6876  155.8243 C.ar    1  UNL1        0.0368
     23 C         141.4005  135.3889  155.0821 C.ar    1  UNL1        0.0024
     24 C         142.4441  134.3863  155.4768 C.ar    1  UNL1        0.0216
     25 C         143.3765  134.6825  156.6137 C.ar    1  UNL1        0.1405
     26 F         144.4201  133.6799  157.0084 F       1  UNL1       -0.2044
     27 C         143.2655  135.9813  157.3560 C.ar    1  UNL1        0.0662
     28 C         142.5551  133.0876  154.7345 C.3     1  UNL1        0.1015
     29 N         141.9073  131.8516  155.2846 N.3     1  UNL1       -0.2665
     30 C         140.5357  131.4554  154.8243 C.3     1  UNL1        0.0899
     31 C         142.6309  131.0118  156.2951 C.3     1  UNL1        0.0899
@<TRIPOS>BOND
     1    18    19    1
     2    19    12    1
     3    12    13   ar
     4    13    14   ar
     5    14    15   ar
     6    15     7    1
     7     7     8   ar
     8     8     9   ar
     9     9    10   ar
    10    10     1    1
    11     1     2    2
    12     1     3   am
    13     3     4    1
    14     4     5    1
    15     5    20    1
    16    20    21    1
    17    21    22   ar
    18    22    23   ar
    19    23    24   ar
    20    24    28    1
    21    28    29    1
    22    29    30    1
    23    29    31    1
    24    24    25   ar
    25    25    26    1
    26    25    27   ar
    27     5     6    1
    28    10    11   ar
    29    15    16   ar
    30    16    17   ar
    31    17    12   ar
    32    11     7   ar
    33     6     3    1
    34    27    21   ar
@<TRIPOS>MOLECULE
*****
 31 34 0 0 0
SMALL
GASTEIGER

@<TRIPOS>ATOM
      1 C         142.7102  138.3458  157.2157 C.2     1  UNL1        0.3047
      2 O         143.8524  139.3178  157.1932 O.2     1  UNL1       -0.2647
      3 N         141.3846  138.7592  157.7831 N.am    1  UNL1       -0.2647
      4 C         140.0559  138.0891  157.9709 C.3     1  UNL1        0.1391
      5 C         139.5099  139.3439  158.5854 C.3     1  UNL1        0.2052
      6 C         140.8387  140.0140  158.3974 C.3     1  UNL1        0.1391
      7 C         143.3034  134.5724  156.5260 C.ar    1  UNL1        0.2501
      8 N         143.0484  135.0841  155.1392 N.ar    1  UNL1       -0.1068
      9 N         142.7952  136.5598  155.2287 N.ar    1  UNL1       -0.1021
     10 C         142.8936  136.9603  156.6709 C.ar    1  UNL1        0.3043
     11 O         143.2077  135.7320  157.4726 O.2     1  UNL1       -0.4122
     12 C         144.1981  130.3077  157.6492 C.ar    1  UNL1        0.1387
     13 C         142.9848  130.6282  156.8276 C.ar    1  UNL1        0.0371
     14 C         142.6866  132.0497  156.4531 C.ar    1  UNL1        0.0078
     15 C         143.6016  133.1509  156.9004 C.ar    1  UNL1        0.0553
     16 C         144.8149  132.8305  157.7221 C.ar    1  UNL1        0.0078
     17 C         145.1131  131.4089  158.0965 C.ar    1  UNL1        0.0371
     18 C         143.7813  128.2488  159.1779 C.3     1  UNL1        0.2525
     19 O         144.4963  128.8862  158.0236 O.3     1  UNL1       -0.4714
     20 O         138.1844  139.7573  159.1526 O.3     1  UNL1       -0.4756
     21 C         138.1199  140.4433  160.4851 C.ar    1  UNL1        0.1408
     22 C         138.1762  141.9402  160.5617 C.ar    1  UNL1        0.0368
     23 C         138.1117  142.6260  161.8941 C.ar    1  UNL1        0.0024
     24 C         137.9909  141.8149  163.1501 C.ar    1  UNL1        0.0216
     25 C         137.9345  140.3180  163.0736 C.ar    1  UNL1        0.1405
     26 F         137.8137  139.5069  164.3296 F       1  UNL1       -0.2044
     27 C         137.9990  139.6321  161.7411 C.ar    1  UNL1        0.0662
     28 C         137.9264  142.5008  164.4825 C.3     1  UNL1        0.1015
     29 N         139.0118  143.4527  164.8893 N.3     1  UNL1       -0.2665
     30 C         138.6678  144.8591  165.2817 C.3     1  UNL1        0.0899
     31 C         140.4413  142.9984  164.9038 C.3     1  UNL1        0.0899
@<TRIPOS>BOND
     1    18    19    1
     2    19    12    1
     3    12    13   ar
     4    13    14   ar
     5    14    15   ar
     6    15     7    1
     7     7     8   ar
     8     8     9   ar
     9     9    10   ar
    10    10     1    1
    11     1     2    2
    12     1     3   am
    13     3     4    1
    14     4     5    1
    15     5    20    1
    16    20    21    1
    17    21    22   ar
    18    22    23   ar
    19    23    24   ar
    20    24    28    1
    21    28    29    1
    22    29    30    1
    23    29    31    1
    24    24    25   ar
    25    25    26    1
    26    25    27   ar
    27     5     6    1
    28    10    11   ar
    29    15    16   ar
    30    16    17   ar
    31    17    12   ar
    32    11     7   ar
    33     6     3    1
    34    27    21   ar
@<TRIPOS>MOLECULE
*****
 31 34 0 0 0
SMALL
GASTEIGER

@<TRIPOS>ATOM
      1 C         140.1219  139.2283  159.8732 C.2     1  UNL1        0.3047
      2 O         138.6555  139.4216  159.6241 O.2     1  UNL1       -0.2647
      3 N         140.9550  138.4611  158.8897 N.am    1  UNL1       -0.2647
      4 C         142.4013  138.0740  158.7992 C.3     1  UNL1        0.1391
      5 C         142.1332  137.3762  157.4986 C.3     1  UNL1        0.2052
      6 C         140.6868  137.7633  157.5892 C.3     1  UNL1        0.1391
      7 C         141.5885  140.0478  163.3722 C.ar    1  UNL1        0.2501
      8 N         141.8713  141.3224  162.6336 N.ar    1  UNL1       -0.1068
      9 N         141.3563  141.1706  161.2330 N.ar    1  UNL1       -0.1021
     10 C         140.7553  139.8021  161.1059 C.ar    1  UNL1        0.3043
     11 O         140.8988  139.1083  162.4280 O.2     1  UNL1       -0.4122
     12 C         142.6271  139.1930  167.6665 C.ar    1  UNL1        0.1387
     13 C         141.4740  140.0946  167.3389 C.ar    1  UNL1        0.0371
     14 C         141.1278  140.3796  165.9075 C.ar    1  UNL1        0.0078
     15 C         141.9347  139.7629  164.8036 C.ar    1  UNL1        0.0553
     16 C         143.0878  138.8612  165.1312 C.ar    1  UNL1        0.0078
     17 C         143.4340  138.5762  166.5626 C.ar    1  UNL1        0.0371
     18 C         142.7063  139.9394  170.1537 C.3     1  UNL1        0.2525
     19 O         142.9733  138.9080  169.0979 O.3     1  UNL1       -0.4714
     20 O         142.9662  136.6091  156.5151 O.3     1  UNL1       -0.4756
     21 C         142.9050  135.1105  156.4883 C.ar    1  UNL1        0.1408
     22 C         141.8880  134.4166  155.6316 C.ar    1  UNL1        0.0368
     23 C         141.8268  132.9181  155.6048 C.ar    1  UNL1        0.0024
     24 C         142.7827  132.1135  156.4348 C.ar    1  UNL1        0.0216
     25 C         143.7997  132.8074  157.2915 C.ar    1  UNL1        0.1405
     26 F         144.7556  132.0027  158.1215 F       1  UNL1       -0.2044
     27 C         143.8609  134.3059  157.3183 C.ar    1  UNL1        0.0662
     28 C         142.7215  130.6150  156.4080 C.3     1  UNL1        0.1015
     29 N         143.9403  129.8210  156.0418 N.3     1  UNL1       -0.2665
     30 C         144.6162  130.0501  154.7224 C.3     1  UNL1        0.0899
     31 C         144.4834  128.7980  156.9950 C.3     1  UNL1        0.0899
@<TRIPOS>BOND
     1    18    19    1
     2    19    12    1
     3    12    13   ar
     4    13    14   ar
     5    14    15   ar
     6    15     7    1
     7     7     8   ar
     8     8     9   ar
     9     9    10   ar
    10    10     1    1
    11     1     2    2
    12     1     3   am
    13     3     4    1
    14     4     5    1
    15     5    20    1
    16    20    21    1
    17    21    22   ar
    18    22    23   ar
    19    23    24   ar
    20    24    28    1
    21    28    29    1
    22    29    30    1
    23    29    31    1
    24    24    25   ar
    25    25    26    1
    26    25    27   ar
    27     5     6    1
    28    10    11   ar
    29    15    16   ar
    30    16    17   ar
    31    17    12   ar
    32    11     7   ar
    33     6     3    1
    34    27    21   ar
@<TRIPOS>MOLECULE
*****
 31 34 0 0 0
SMALL
GASTEIGER

@<TRIPOS>ATOM
      1 C         139.2427  143.3193  160.6877 C.2     1  UNL1        0.3047
      2 O         139.6724  144.6189  160.0743 O.2     1  UNL1       -0.2647
      3 N         139.0916  142.0985  159.8293 N.am    1  UNL1       -0.2647
      4 C         138.6955  140.6726  160.0737 C.3     1  UNL1        0.1391
      5 C         138.8779  140.3720  158.6154 C.3     1  UNL1        0.2052
      6 C         139.2739  141.7980  158.3711 C.3     1  UNL1        0.1391
      7 C         139.1531  142.7048  164.5191 C.ar    1  UNL1        0.2501
      8 N         137.9174  143.5338  164.3295 N.ar    1  UNL1       -0.1068
      9 N         137.8006  143.8649  162.8712 N.ar    1  UNL1       -0.1021
     10 C         138.9640  143.2405  162.1595 C.ar    1  UNL1        0.3043
     11 O         139.7999  142.5236  163.1779 O.2     1  UNL1       -0.4122
     12 C         140.6557  141.0517  168.4255 C.ar    1  UNL1        0.1387
     13 C         140.7027  142.5287  168.1684 C.ar    1  UNL1        0.0371
     14 C         140.2018  143.0798  166.8663 C.ar    1  UNL1        0.0078
     15 C         139.6539  142.1538  165.8212 C.ar    1  UNL1        0.0553
     16 C         139.6069  140.6767  166.0783 C.ar    1  UNL1        0.0078
     17 C         140.1078  140.1257  167.3804 C.ar    1  UNL1        0.0371
     18 C         142.0676  139.3092  169.7369 C.3     1  UNL1        0.2525
     19 O         141.1565  140.5007  169.7276 O.3     1  UNL1       -0.4714
     20 O         138.7268  139.1513  157.7571 O.3     1  UNL1       -0.4756
     21 C         139.9315  138.3321  157.3994 C.ar    1  UNL1        0.1408
     22 C         141.2130  138.5122  158.1576 C.ar    1  UNL1        0.0368
     23 C         142.4176  137.6931  157.7999 C.ar    1  UNL1        0.0024
     24 C         142.3407  136.6939  156.6838 C.ar    1  UNL1        0.0216
     25 C         141.0591  136.5139  155.9255 C.ar    1  UNL1        0.1405
     26 F         140.9822  135.5146  154.8094 F       1  UNL1       -0.2044
     27 C         139.8544  137.3330  156.2832 C.ar    1  UNL1        0.0662
     28 C         143.5453  135.8748  156.3260 C.3     1  UNL1        0.1015
     29 N         143.5653  134.4036  156.6175 N.3     1  UNL1       -0.2665
     30 C         143.6918  133.9209  158.0321 C.3     1  UNL1        0.0899
     31 C         143.4588  133.4150  155.4944 C.3     1  UNL1        0.0899
@<TRIPOS>BOND
     1    18    19    1
     2    19    12    1
     3    12    13   ar
     4    13    14   ar
     5    14    15   ar
     6    15     7    1
     7     7     8   ar
     8     8     9   ar
     9     9    10   ar
    10    10     1    1
    11     1     2    2
    12     1     3   am
    13     3     4    1
    14     4     5    1
    15     5    20    1
    16    20    21    1
    17    21    22   ar
    18    22    23   ar
    19    23    24   ar
    20    24    28    1
    21    28    29    1
    22    29    30    1
    23    29    31    1
    24    24    25   ar
    25    25    26    1
    26    25    27   ar
    27     5     6    1
    28    10    11   ar
    29    15    16   ar
    30    16    17   ar
    31    17    12   ar
    32    11     7   ar
    33     6     3    1
    34    27    21   ar
@<TRIPOS>MOLECULE
*****
 31 34 0 0 0
SMALL
GASTEIGER

@<TRIPOS>ATOM
      1 C         142.8326  138.0057  156.7661 C.2     1  UNL1        0.3047
      2 O         143.9567  138.9769  156.5586 O.2     1  UNL1       -0.2647
      3 N         141.5622  138.4581  157.4230 N.am    1  UNL1       -0.2647
      4 C         140.2647  137.8004  157.7887 C.3     1  UNL1        0.1391
      5 C         139.7656  139.0980  158.3519 C.3     1  UNL1        0.2052
      6 C         141.0631  139.7558  157.9861 C.3     1  UNL1        0.1391
      7 C         143.3549  134.1843  156.3305 C.ar    1  UNL1        0.2501
      8 N         143.0530  134.5982  154.9207 N.ar    1  UNL1       -0.1068
      9 N         142.8206  136.0801  154.9122 N.ar    1  UNL1       -0.1021
     10 C         142.9789  136.5821  156.3169 C.ar    1  UNL1        0.3043
     11 O         143.3090  135.4104  157.1934 O.2     1  UNL1       -0.4122
     12 C         144.2422  129.9992  157.7261 C.ar    1  UNL1        0.1387
     13 C         145.1361  131.1319  158.1359 C.ar    1  UNL1        0.0371
     14 C         144.8404  132.5269  157.6707 C.ar    1  UNL1        0.0078
     15 C         143.6507  132.7893  156.7957 C.ar    1  UNL1        0.0553
     16 C         142.7567  131.6567  156.3859 C.ar    1  UNL1        0.0078
     17 C         143.0525  130.2616  156.8511 C.ar    1  UNL1        0.0371
     18 C         144.4315  128.2608  159.6476 C.3     1  UNL1        0.2525
     19 O         144.5380  128.6042  158.1914 O.3     1  UNL1       -0.4714
     20 O         138.4953  139.5504  159.0086 O.3     1  UNL1       -0.4756
     21 C         138.4153  139.6418  160.5038 C.ar    1  UNL1        0.1408
     22 C         138.9894  138.5475  161.3539 C.ar    1  UNL1        0.0368
     23 C         138.9093  138.6389  162.8490 C.ar    1  UNL1        0.0024
     24 C         138.2552  139.8247  163.4939 C.ar    1  UNL1        0.0216
     25 C         137.6811  140.9191  162.6438 C.ar    1  UNL1        0.1405
     26 F         137.0270  142.1049  163.2888 F       1  UNL1       -0.2044
     27 C         137.7611  140.8277  161.1487 C.ar    1  UNL1        0.0662
     28 C         138.1752  139.9161  164.9890 C.3     1  UNL1        0.1015
     29 N         139.2908  140.5546  165.7621 N.3     1  UNL1       -0.2665
     30 C         140.1949  139.7099  166.6103 C.3     1  UNL1        0.0899
     31 C         139.5025  142.0377  165.6871 C.3     1  UNL1        0.0899
@<TRIPOS>BOND
     1    18    19    1
     2    19    12    1
     3    12    13   ar
     4    13    14   ar
     5    14    15   ar
     6    15     7    1
     7     7     8   ar
     8     8     9   ar
     9     9    10   ar
    10    10     1    1
    11     1     2    2
    12     1     3   am
    13     3     4    1
    14     4     5    1
    15     5    20    1
    16    20    21    1
    17    21    22   ar
    18    22    23   ar
    19    23    24   ar
    20    24    28    1
    21    28    29    1
    22    29    30    1
    23    29    31    1
    24    24    25   ar
    25    25    26    1
    26    25    27   ar
    27     5     6    1
    28    10    11   ar
    29    15    16   ar
    30    16    17   ar
    31    17    12   ar
    32    11     7   ar
    33     6     3    1
    34    27    21   ar
