@<TRIPOS>MOLECULE
*****
 41 45 0 0 0
SMALL
GASTEIGER

@<TRIPOS>ATOM
      1 C         140.4793  140.5787  163.2254 C.3     1  UNL1        0.0807
      2 C         139.6707  139.2896  165.3312 C.ar    1  UNL1        0.2211
      3 N         139.4074  139.2479  166.8073 N.ar    1  UNL1       -0.2119
      4 C         139.6896  140.4537  167.6539 C.ar    1  UNL1        0.0844
      5 C         139.4264  140.4120  169.1300 C.ar    1  UNL1        0.0197
      6 C         139.7085  141.6178  169.9764 C.ar    1  UNL1        0.0082
      7 C         140.2539  142.8652  169.3468 C.ar    1  UNL1        0.0347
      8 BR        140.5361  144.0710  170.1933 Br      1  UNL1       -0.0490
      9 C         140.5172  142.9069  167.8707 C.ar    1  UNL1        0.0082
     10 C         140.2350  141.7011  167.0242 C.ar    1  UNL1        0.0181
     11 C         140.4983  141.7428  165.5480 C.ar    1  UNL1        0.0023
     12 C         140.2161  140.5371  164.7016 C.ar    1  UNL1        0.0375
     13 C         140.3504  136.9330  164.4744 C.3     1  UNL1        0.2542
     14 O         139.3885  138.0838  164.4847 O.3     1  UNL1       -0.4563
     15 C         141.5463  139.7093  162.6290 C.ar    1  UNL1        0.0215
     16 C         141.2304  138.8353  161.4515 C.ar    1  UNL1       -0.0007
     17 C         142.2974  137.9659  160.8552 C.ar    1  UNL1        0.0030
     18 C         143.6803  137.9705  161.4363 C.ar    1  UNL1        0.0402
     19 C         143.9962  138.8444  162.6137 C.ar    1  UNL1        0.1761
     20 C         142.9292  139.7139  163.2101 C.ar    1  UNL1        0.1728
     21 O         143.5322  140.4649  164.3600 O.3     1  UNL1       -0.4349
     22 C         144.9719  140.0597  164.4743 C.3     1  UNL1        0.4294
     23 O         145.2587  139.0582  163.3951 O.3     1  UNL1       -0.4346
     24 C         139.6756  141.4897  162.3456 C.3     1  UNL1        0.1160
     25 O         138.4365  140.7085  162.6687 O.3     1  UNL1       -0.3820
     26 H         138.6701  139.7790  162.8182 H       1  UNL1        0.2107
     27 C         140.9147  142.2709  162.0226 C.ar    1  UNL1        0.0064
     28 C         141.6110  143.0513  163.0979 C.ar    1  UNL1        0.0235
     29 C         142.8500  143.8325  162.7748 C.ar    1  UNL1        0.1070
     30 N         143.3929  143.8333  161.3765 N.ar    1  UNL1       -0.2330
     31 C         142.6967  143.0529  160.3012 C.ar    1  UNL1        0.1070
     32 C         141.4575  142.2717  160.6242 C.ar    1  UNL1        0.0235
     33 S         143.5464  144.6129  163.8501 S.3     1  UNL1       -0.0940
     34 C         144.2814  143.8939  164.9422 C.3     1  UNL1        0.0757
     35 S         143.2395  143.0537  158.9029 S.3     1  UNL1       -0.0940
     36 C         142.6793  143.9986  157.8814 C.3     1  UNL1        0.0757
     37 C         138.8719  142.4007  161.4659 C.3     1  UNL1        0.0491
     38 C         137.8767  143.3443  162.0735 C.3     1  UNL1        0.0750
     39 N         138.3362  144.4073  163.0269 N.3     1  UNL1       -0.2702
     40 C         139.1071  145.5890  162.5178 C.3     1  UNL1        0.0897
     41 C         138.0248  144.2886  164.4894 C.3     1  UNL1        0.0897
@<TRIPOS>BOND
     1    13    14    1
     2    14     2    1
     3     2     3   ar
     4     3     4   ar
     5     4     5   ar
     6     5     6   ar
     7     6     7   ar
     8     7     8    1
     9     7     9   ar
    10     9    10   ar
    11    10    11   ar
    12    11    12   ar
    13     1    12    1
    14     1    15    1
    15    15    16   ar
    16    16    17   ar
    17    17    18   ar
    18    18    19   ar
    19    19    20   ar
    20    20    21    1
    21    21    22    1
    22    22    23    1
    23     1    24    1
    24    24    25    1
    25    24    37    1
    26    37    38    1
    27    38    39    1
    28    39    40    1
    29    39    41    1
    30    24    27    1
    31    27    28   ar
    32    28    29   ar
    33    29    33    1
    34    33    34    1
    35    29    30   ar
    36    30    31   ar
    37    31    35    1
    38    35    36    1
    39    31    32   ar
    40    12     2   ar
    41    20    15   ar
    42    32    27   ar
    43    10     4   ar
    44    23    19    1
    45    25    26    1
@<TRIPOS>MOLECULE
*****
 41 45 0 0 0
SMALL
GASTEIGER

@<TRIPOS>ATOM
      1 C         140.4544  140.6277  163.2698 C.3     1  UNL1        0.0807
      2 C         139.6526  139.3384  165.3781 C.ar    1  UNL1        0.2211
      3 N         139.3989  139.2950  166.8558 N.ar    1  UNL1       -0.2119
      4 C         139.6931  140.4974  167.7031 C.ar    1  UNL1        0.0844
      5 C         139.4393  140.4539  169.1808 C.ar    1  UNL1        0.0197
      6 C         139.7336  141.6562  170.0279 C.ar    1  UNL1        0.0082
      7 C         140.2816  142.9021  169.3974 C.ar    1  UNL1        0.0347
      8 BR        140.5758  144.1045  170.2446 Br      1  UNL1       -0.0490
      9 C         140.5354  142.9455  167.9197 C.ar    1  UNL1        0.0082
     10 C         140.2411  141.7432  167.0725 C.ar    1  UNL1        0.0181
     11 C         140.4949  141.7866  165.5947 C.ar    1  UNL1        0.0023
     12 C         140.2006  140.5843  164.7476 C.ar    1  UNL1        0.0375
     13 C         140.2917  136.9619  164.5452 C.3     1  UNL1        0.2542
     14 O         139.3584  138.1360  164.5309 O.3     1  UNL1       -0.4563
     15 C         141.5062  139.7469  162.6633 C.ar    1  UNL1        0.0215
     16 C         141.1697  138.8766  161.4888 C.ar    1  UNL1       -0.0007
     17 C         142.2216  137.9958  160.8822 C.ar    1  UNL1        0.0030
     18 C         143.6099  137.9854  161.4502 C.ar    1  UNL1        0.0402
     19 C         143.9463  138.8557  162.6246 C.ar    1  UNL1        0.1761
     20 C         142.8945  139.7364  163.2312 C.ar    1  UNL1        0.1728
     21 O         143.5165  140.4807  164.3753 O.3     1  UNL1       -0.4349
     22 C         144.9528  140.0600  164.4759 C.3     1  UNL1        0.4294
     23 O         145.2184  139.0556  163.3939 O.3     1  UNL1       -0.4346
     24 C         139.6564  141.5518  162.3986 C.3     1  UNL1        0.1160
     25 O         138.3985  140.8346  162.7901 O.3     1  UNL1       -0.3820
     26 H         138.5972  139.8996  162.9545 H       1  UNL1        0.2107
     27 C         140.9142  142.2691  162.0072 C.ar    1  UNL1        0.0064
     28 C         141.4162  142.1871  160.5960 C.ar    1  UNL1        0.0235
     29 C         142.6740  142.9044  160.2045 C.ar    1  UNL1        0.1070
     30 N         143.4301  143.7035  161.2242 N.ar    1  UNL1       -0.2330
     31 C         142.9282  143.7855  162.6353 C.ar    1  UNL1        0.1070
     32 C         141.6703  143.0682  163.0269 C.ar    1  UNL1        0.0235
     33 S         143.1760  142.8224  158.7933 S.3     1  UNL1       -0.0940
     34 C         144.6348  142.5952  158.5281 C.3     1  UNL1        0.0757
     35 S         143.6842  144.5846  163.6550 S.3     1  UNL1       -0.0940
     36 C         144.2269  143.9136  164.8819 C.3     1  UNL1        0.0757
     37 C         138.8583  142.4760  161.5274 C.3     1  UNL1        0.0491
     38 C         137.9852  143.5254  162.1491 C.3     1  UNL1        0.0750
     39 N         138.6005  144.6378  162.9453 N.3     1  UNL1       -0.2702
     40 C         138.4977  144.6350  164.4418 C.3     1  UNL1        0.0897
     41 C         139.3188  145.7530  162.2451 C.3     1  UNL1        0.0897
@<TRIPOS>BOND
     1    13    14    1
     2    14     2    1
     3     2     3   ar
     4     3     4   ar
     5     4     5   ar
     6     5     6   ar
     7     6     7   ar
     8     7     8    1
     9     7     9   ar
    10     9    10   ar
    11    10    11   ar
    12    11    12   ar
    13     1    12    1
    14     1    15    1
    15    15    16   ar
    16    16    17   ar
    17    17    18   ar
    18    18    19   ar
    19    19    20   ar
    20    20    21    1
    21    21    22    1
    22    22    23    1
    23     1    24    1
    24    24    25    1
    25    24    37    1
    26    37    38    1
    27    38    39    1
    28    39    40    1
    29    39    41    1
    30    24    27    1
    31    27    28   ar
    32    28    29   ar
    33    29    33    1
    34    33    34    1
    35    29    30   ar
    36    30    31   ar
    37    31    35    1
    38    35    36    1
    39    31    32   ar
    40    12     2   ar
    41    20    15   ar
    42    32    27   ar
    43    10     4   ar
    44    23    19    1
    45    25    26    1
@<TRIPOS>MOLECULE
*****
 41 45 0 0 0
SMALL
GASTEIGER

@<TRIPOS>ATOM
      1 C         141.7652  140.6931  163.5180 C.3     1  UNL1        0.0807
      2 C         142.9537  139.6876  165.5980 C.ar    1  UNL1        0.2211
      3 N         143.1349  139.6224  167.0856 N.ar    1  UNL1       -0.2119
      4 C         142.3087  140.4976  167.9809 C.ar    1  UNL1        0.0844
      5 C         142.4899  140.4325  169.4684 C.ar    1  UNL1        0.0197
      6 C         141.6637  141.3077  170.3636 C.ar    1  UNL1        0.0082
      7 C         140.6563  142.2480  169.7712 C.ar    1  UNL1        0.0347
      8 BR        139.8301  143.1232  170.6665 Br      1  UNL1       -0.0490
      9 C         140.4751  142.3132  168.2837 C.ar    1  UNL1        0.0082
     10 C         141.3013  141.4380  167.3885 C.ar    1  UNL1        0.0181
     11 C         141.1201  141.5031  165.9008 C.ar    1  UNL1        0.0023
     12 C         141.9463  140.6280  165.0057 C.ar    1  UNL1        0.0375
     13 C         145.1862  139.2055  164.3596 C.3     1  UNL1        0.2542
     14 O         143.7799  138.8124  164.7028 O.3     1  UNL1       -0.4563
     15 C         142.7512  141.4458  162.6747 C.ar    1  UNL1        0.0215
     16 C         143.4385  140.7593  161.5316 C.ar    1  UNL1       -0.0007
     17 C         144.4245  141.5120  160.6883 C.ar    1  UNL1        0.0030
     18 C         144.7232  142.9511  160.9880 C.ar    1  UNL1        0.0402
     19 C         144.0359  143.6375  162.1310 C.ar    1  UNL1        0.1761
     20 C         143.0499  142.8848  162.9743 C.ar    1  UNL1        0.1728
     21 O         142.5319  143.8194  164.0271 O.3     1  UNL1       -0.4349
     22 C         143.1977  145.1496  163.8344 C.3     1  UNL1        0.4294
     23 O         144.1272  145.0372  162.6625 O.3     1  UNL1       -0.4346
     24 C         140.5980  140.0056  162.8738 C.3     1  UNL1        0.1160
     25 O         141.1543  138.6750  163.2860 O.3     1  UNL1       -0.3820
     26 H         142.1233  138.7182  163.2943 H       1  UNL1        0.2107
     27 C         140.0417  141.3362  162.4616 C.ar    1  UNL1        0.0064
     28 C         140.1624  141.7909  161.0372 C.ar    1  UNL1        0.0235
     29 C         139.6062  143.1215  160.6250 C.ar    1  UNL1        0.1070
     30 N         138.9292  143.9975  161.6371 N.ar    1  UNL1       -0.2330
     31 C         138.8085  143.5429  163.0614 C.ar    1  UNL1        0.1070
     32 C         139.3648  142.2122  163.4737 C.ar    1  UNL1        0.0235
     33 S         139.7269  143.5762  159.2006 S.3     1  UNL1       -0.0940
     34 C         140.2516  144.9473  158.8929 C.3     1  UNL1        0.0757
     35 S         138.1315  144.4189  164.0735 S.3     1  UNL1       -0.0940
     36 C         138.8504  144.8044  165.3322 C.3     1  UNL1        0.0757
     37 C         139.4309  139.3181  162.2296 C.3     1  UNL1        0.0491
     38 C         138.2872  138.8346  163.0712 C.3     1  UNL1        0.0750
     39 N         138.4802  138.6116  164.5420 N.3     1  UNL1       -0.2702
     40 C         139.0134  137.3002  165.0380 C.3     1  UNL1        0.0897
     41 C         138.1399  139.6998  165.5166 C.3     1  UNL1        0.0897
@<TRIPOS>BOND
     1    13    14    1
     2    14     2    1
     3     2     3   ar
     4     3     4   ar
     5     4     5   ar
     6     5     6   ar
     7     6     7   ar
     8     7     8    1
     9     7     9   ar
    10     9    10   ar
    11    10    11   ar
    12    11    12   ar
    13     1    12    1
    14     1    15    1
    15    15    16   ar
    16    16    17   ar
    17    17    18   ar
    18    18    19   ar
    19    19    20   ar
    20    20    21    1
    21    21    22    1
    22    22    23    1
    23     1    24    1
    24    24    25    1
    25    24    37    1
    26    37    38    1
    27    38    39    1
    28    39    40    1
    29    39    41    1
    30    24    27    1
    31    27    28   ar
    32    28    29   ar
    33    29    33    1
    34    33    34    1
    35    29    30   ar
    36    30    31   ar
    37    31    35    1
    38    35    36    1
    39    31    32   ar
    40    12     2   ar
    41    20    15   ar
    42    32    27   ar
    43    10     4   ar
    44    23    19    1
    45    25    26    1
@<TRIPOS>MOLECULE
*****
 41 45 0 0 0
SMALL
GASTEIGER

@<TRIPOS>ATOM
      1 C         141.7677  140.6830  163.5227 C.3     1  UNL1        0.0807
      2 C         142.9713  139.7040  165.6067 C.ar    1  UNL1        0.2211
      3 N         143.1579  139.6522  167.0941 N.ar    1  UNL1       -0.2119
      4 C         142.3273  140.5276  167.9851 C.ar    1  UNL1        0.0844
      5 C         142.5139  140.4758  169.4726 C.ar    1  UNL1        0.0197
      6 C         141.6833  141.3512  170.3635 C.ar    1  UNL1        0.0082
      7 C         140.6662  142.2784  169.7671 C.ar    1  UNL1        0.0347
      8 BR        139.8357  143.1538  170.6581 Br      1  UNL1       -0.0490
      9 C         140.4797  142.3302  168.2796 C.ar    1  UNL1        0.0082
     10 C         141.3102  141.4548  167.3887 C.ar    1  UNL1        0.0181
     11 C         141.1237  141.5066  165.9012 C.ar    1  UNL1        0.0023
     12 C         141.9542  140.6312  165.0102 C.ar    1  UNL1        0.0375
     13 C         145.1912  139.2477  164.3363 C.3     1  UNL1        0.2542
     14 O         143.8019  138.8286  164.7156 O.3     1  UNL1       -0.4563
     15 C         142.7416  141.4416  162.6707 C.ar    1  UNL1        0.0215
     16 C         143.4206  140.7602  161.5197 C.ar    1  UNL1       -0.0007
     17 C         144.3945  141.5188  160.6677 C.ar    1  UNL1        0.0030
     18 C         144.6895  142.9588  160.9666 C.ar    1  UNL1        0.0402
     19 C         144.0106  143.6402  162.1176 C.ar    1  UNL1        0.1761
     20 C         143.0366  142.8816  162.9696 C.ar    1  UNL1        0.1728
     21 O         142.5249  143.8120  164.0290 O.3     1  UNL1       -0.4349
     22 C         143.1825  145.1457  163.8318 C.3     1  UNL1        0.4294
     23 O         144.1007  145.0394  162.6505 O.3     1  UNL1       -0.4346
     24 C         140.6072  139.9762  162.8873 C.3     1  UNL1        0.1160
     25 O         141.1795  138.6560  163.3108 O.3     1  UNL1       -0.3820
     26 H         142.1479  138.7103  163.3168 H       1  UNL1        0.2107
     27 C         140.0350  141.2965  162.4638 C.ar    1  UNL1        0.0064
     28 C         139.3623  142.1804  163.4719 C.ar    1  UNL1        0.0235
     29 C         138.7901  143.5007  163.0484 C.ar    1  UNL1        0.1070
     30 N         138.8905  143.9371  161.6168 N.ar    1  UNL1       -0.2330
     31 C         139.5632  143.0533  160.6087 C.ar    1  UNL1        0.1070
     32 C         140.1354  141.7329  161.0322 C.ar    1  UNL1        0.0235
     33 S         138.1174  144.3846  164.0565 S.3     1  UNL1       -0.0940
     34 C         138.8594  144.8211  165.2849 C.3     1  UNL1        0.0757
     35 S         139.6636  143.4897  159.1771 S.3     1  UNL1       -0.0940
     36 C         140.9729  143.3883  158.4522 C.3     1  UNL1        0.0757
     37 C         139.4468  139.2695  162.2519 C.3     1  UNL1        0.0491
     38 C         138.2891  138.8216  163.0940 C.3     1  UNL1        0.0750
     39 N         138.4772  138.5862  164.5634 N.3     1  UNL1       -0.2702
     40 C         139.0012  137.2679  165.0508 C.3     1  UNL1        0.0897
     41 C         138.1413  139.6691  165.5455 C.3     1  UNL1        0.0897
@<TRIPOS>BOND
     1    13    14    1
     2    14     2    1
     3     2     3   ar
     4     3     4   ar
     5     4     5   ar
     6     5     6   ar
     7     6     7   ar
     8     7     8    1
     9     7     9   ar
    10     9    10   ar
    11    10    11   ar
    12    11    12   ar
    13     1    12    1
    14     1    15    1
    15    15    16   ar
    16    16    17   ar
    17    17    18   ar
    18    18    19   ar
    19    19    20   ar
    20    20    21    1
    21    21    22    1
    22    22    23    1
    23     1    24    1
    24    24    25    1
    25    24    37    1
    26    37    38    1
    27    38    39    1
    28    39    40    1
    29    39    41    1
    30    24    27    1
    31    27    28   ar
    32    28    29   ar
    33    29    33    1
    34    33    34    1
    35    29    30   ar
    36    30    31   ar
    37    31    35    1
    38    35    36    1
    39    31    32   ar
    40    12     2   ar
    41    20    15   ar
    42    32    27   ar
    43    10     4   ar
    44    23    19    1
    45    25    26    1
@<TRIPOS>MOLECULE
*****
 41 45 0 0 0
SMALL
GASTEIGER

@<TRIPOS>ATOM
      1 C         142.1029  141.4193  162.9570 C.3     1  UNL1        0.0807
      2 C         143.5043  142.6005  164.7985 C.ar    1  UNL1        0.2211
      3 N         143.7991  142.8478  166.2483 N.ar    1  UNL1       -0.2119
      4 C         142.9875  142.1611  167.3065 C.ar    1  UNL1        0.0844
      5 C         143.2824  142.4084  168.7562 C.ar    1  UNL1        0.0197
      6 C         142.4707  141.7217  169.8144 C.ar    1  UNL1        0.0082
      7 C         141.3642  140.7877  169.4227 C.ar    1  UNL1        0.0347
      8 BR        140.5526  140.1010  170.4810 Br      1  UNL1       -0.0490
      9 C         141.0694  140.5405  167.9730 C.ar    1  UNL1        0.0082
     10 C         141.8810  141.2271  166.9149 C.ar    1  UNL1        0.0181
     11 C         141.5862  140.9799  165.4650 C.ar    1  UNL1        0.0023
     12 C         142.3978  141.6666  164.4069 C.ar    1  UNL1        0.0375
     13 C         144.0130  144.7080  163.3668 C.3     1  UNL1        0.2542
     14 O         144.3159  143.2872  163.7403 O.3     1  UNL1       -0.4563
     15 C         141.4391  142.4837  162.1345 C.ar    1  UNL1        0.0215
     16 C         142.0887  142.9712  160.8733 C.ar    1  UNL1       -0.0007
     17 C         141.4249  144.0355  160.0509 C.ar    1  UNL1        0.0030
     18 C         140.1116  144.6124  160.4896 C.ar    1  UNL1        0.0402
     19 C         139.4621  144.1250  161.7507 C.ar    1  UNL1        0.1761
     20 C         140.1259  143.0606  162.5732 C.ar    1  UNL1        0.1728
     21 O         139.2532  142.7808  163.7607 O.3     1  UNL1       -0.4349
     22 C         138.0501  143.6722  163.6722 C.3     1  UNL1        0.4294
     23 O         138.1792  144.5030  162.4299 O.3     1  UNL1       -0.4346
     24 C         142.4719  140.1077  162.3297 C.3     1  UNL1        0.1160
     25 O         143.8921  140.5714  162.1955 O.3     1  UNL1       -0.3820
     26 H         143.9070  141.5312  162.0563 H       1  UNL1        0.2107
     27 C         141.0517  139.6440  162.4639 C.ar    1  UNL1        0.0064
     28 C         140.0678  139.9132  161.3641 C.ar    1  UNL1        0.0235
     29 C         138.6476  139.4495  161.4982 C.ar    1  UNL1        0.1070
     30 N         138.2112  138.7167  162.7322 N.ar    1  UNL1       -0.2330
     31 C         139.1951  138.4476  163.8320 C.ar    1  UNL1        0.1070
     32 C         140.6154  138.9113  163.6978 C.ar    1  UNL1        0.0235
     33 S         137.6636  139.7186  160.3984 S.3     1  UNL1       -0.0940
     34 C         138.0989  140.4553  159.1664 C.3     1  UNL1        0.0757
     35 S         138.7588  137.7148  165.0659 S.3     1  UNL1       -0.0940
     36 C         138.1905  138.4744  166.2278 C.3     1  UNL1        0.0757
     37 C         142.8408  138.7961  161.7024 C.3     1  UNL1        0.0491
     38 C         143.8815  138.7472  160.6233 C.3     1  UNL1        0.0750
     39 N         143.5190  139.1137  159.2146 N.3     1  UNL1       -0.2702
     40 C         143.9746  140.4218  158.6390 C.3     1  UNL1        0.0897
     41 C         142.7009  138.1721  158.3815 C.3     1  UNL1        0.0897
@<TRIPOS>BOND
     1    13    14    1
     2    14     2    1
     3     2     3   ar
     4     3     4   ar
     5     4     5   ar
     6     5     6   ar
     7     6     7   ar
     8     7     8    1
     9     7     9   ar
    10     9    10   ar
    11    10    11   ar
    12    11    12   ar
    13     1    12    1
    14     1    15    1
    15    15    16   ar
    16    16    17   ar
    17    17    18   ar
    18    18    19   ar
    19    19    20   ar
    20    20    21    1
    21    21    22    1
    22    22    23    1
    23     1    24    1
    24    24    25    1
    25    24    37    1
    26    37    38    1
    27    38    39    1
    28    39    40    1
    29    39    41    1
    30    24    27    1
    31    27    28   ar
    32    28    29   ar
    33    29    33    1
    34    33    34    1
    35    29    30   ar
    36    30    31   ar
    37    31    35    1
    38    35    36    1
    39    31    32   ar
    40    12     2   ar
    41    20    15   ar
    42    32    27   ar
    43    10     4   ar
    44    23    19    1
    45    25    26    1
@<TRIPOS>MOLECULE
*****
 41 45 0 0 0
SMALL
GASTEIGER

@<TRIPOS>ATOM
      1 C         140.6104  140.6310  162.7412 C.3     1  UNL1        0.0807
      2 C         140.0453  139.1406  164.7930 C.ar    1  UNL1        0.2211
      3 N         139.8410  138.9885  166.2711 N.ar    1  UNL1       -0.2119
      4 C         139.9975  140.1747  167.1759 C.ar    1  UNL1        0.0844
      5 C         139.7932  140.0226  168.6541 C.ar    1  UNL1        0.0197
      6 C         139.9497  141.2087  169.5588 C.ar    1  UNL1        0.0082
      7 C         140.3105  142.5470  168.9853 C.ar    1  UNL1        0.0347
      8 BR        140.4670  143.7332  169.8901 Br      1  UNL1       -0.0490
      9 C         140.5148  142.6991  167.5071 C.ar    1  UNL1        0.0082
     10 C         140.3583  141.5129  166.6024 C.ar    1  UNL1        0.0181
     11 C         140.5626  141.6650  165.1242 C.ar    1  UNL1        0.0023
     12 C         140.4061  140.4789  164.2195 C.ar    1  UNL1        0.0375
     13 C         138.5725  137.6898  163.2193 C.3     1  UNL1        0.2542
     14 O         139.8888  137.9544  163.8882 O.3     1  UNL1       -0.4563
     15 C         141.5546  139.7179  162.0168 C.ar    1  UNL1        0.0215
     16 C         142.8877  139.3863  162.6194 C.ar    1  UNL1       -0.0007
     17 C         143.8319  138.4733  161.8949 C.ar    1  UNL1        0.0030
     18 C         143.4431  137.8919  160.5679 C.ar    1  UNL1        0.0402
     19 C         142.1101  138.2236  159.9653 C.ar    1  UNL1        0.1761
     20 C         141.1659  139.1366  160.6898 C.ar    1  UNL1        0.1728
     21 O         139.9287  139.2817  159.8541 O.3     1  UNL1       -0.4349
     22 C         140.1083  138.4583  158.6132 C.3     1  UNL1        0.4294
     23 O         141.4565  137.8044  158.6820 O.3     1  UNL1       -0.4346
     24 C         139.8705  141.6960  161.9875 C.3     1  UNL1        0.1160
     25 O         138.5719  141.0107  162.2939 O.3     1  UNL1       -0.3820
     26 H         138.7161  140.0529  162.3459 H       1  UNL1        0.2107
     27 C         141.1691  142.3813  161.6810 C.ar    1  UNL1        0.0064
     28 C         141.7233  142.3496  160.2874 C.ar    1  UNL1        0.0235
     29 C         143.0219  143.0349  159.9810 C.ar    1  UNL1        0.1070
     30 N         143.7664  143.7519  161.0681 N.ar    1  UNL1       -0.2330
     31 C         143.2122  143.7836  162.4616 C.ar    1  UNL1        0.1070
     32 C         141.9136  143.0983  162.7681 C.ar    1  UNL1        0.0235
     33 S         143.5761  143.0033  158.5874 S.3     1  UNL1       -0.0940
     34 C         145.0013  142.5968  158.3562 C.3     1  UNL1        0.0757
     35 S         143.9567  144.5006  163.5486 S.3     1  UNL1       -0.0940
     36 C         144.2656  143.7963  164.8365 C.3     1  UNL1        0.0757
     37 C         139.1306  142.7610  161.2337 C.3     1  UNL1        0.0491
     38 C         138.2833  143.7529  161.9743 C.3     1  UNL1        0.0750
     39 N         138.9314  144.8568  162.7563 N.3     1  UNL1       -0.2702
     40 C         139.6272  145.9755  162.0390 C.3     1  UNL1        0.0897
     41 C         138.8836  144.8421  164.2554 C.3     1  UNL1        0.0897
@<TRIPOS>BOND
     1    13    14    1
     2    14     2    1
     3     2     3   ar
     4     3     4   ar
     5     4     5   ar
     6     5     6   ar
     7     6     7   ar
     8     7     8    1
     9     7     9   ar
    10     9    10   ar
    11    10    11   ar
    12    11    12   ar
    13     1    12    1
    14     1    15    1
    15    15    16   ar
    16    16    17   ar
    17    17    18   ar
    18    18    19   ar
    19    19    20   ar
    20    20    21    1
    21    21    22    1
    22    22    23    1
    23     1    24    1
    24    24    25    1
    25    24    37    1
    26    37    38    1
    27    38    39    1
    28    39    40    1
    29    39    41    1
    30    24    27    1
    31    27    28   ar
    32    28    29   ar
    33    29    33    1
    34    33    34    1
    35    29    30   ar
    36    30    31   ar
    37    31    35    1
    38    35    36    1
    39    31    32   ar
    40    12     2   ar
    41    20    15   ar
    42    32    27   ar
    43    10     4   ar
    44    23    19    1
    45    25    26    1
@<TRIPOS>MOLECULE
*****
 41 45 0 0 0
SMALL
GASTEIGER

@<TRIPOS>ATOM
      1 C         140.6739  140.6156  162.7716 C.3     1  UNL1        0.0807
      2 C         140.0031  139.1407  164.8026 C.ar    1  UNL1        0.2211
      3 N         139.7525  138.9925  166.2740 N.ar    1  UNL1       -0.2119
      4 C         139.9221  140.1713  167.1861 C.ar    1  UNL1        0.0844
      5 C         139.6715  140.0231  168.6576 C.ar    1  UNL1        0.0197
      6 C         139.8411  141.2018  169.5696 C.ar    1  UNL1        0.0082
      7 C         140.2613  142.5286  169.0102 C.ar    1  UNL1        0.0347
      8 BR        140.4310  143.7074  169.9224 Br      1  UNL1       -0.0490
      9 C         140.5119  142.6768  167.5388 C.ar    1  UNL1        0.0082
     10 C         140.3423  141.4981  166.6267 C.ar    1  UNL1        0.0181
     11 C         140.5929  141.6462  165.1552 C.ar    1  UNL1        0.0023
     12 C         140.4233  140.4675  164.2432 C.ar    1  UNL1        0.0375
     13 C         138.5316  137.7467  163.1773 C.3     1  UNL1        0.2542
     14 O         139.8335  137.9619  163.8904 O.3     1  UNL1       -0.4563
     15 C         141.5997  139.6671  162.0693 C.ar    1  UNL1        0.0215
     16 C         142.9011  139.2794  162.7066 C.ar    1  UNL1       -0.0007
     17 C         143.8269  138.3309  162.0043 C.ar    1  UNL1        0.0030
     18 C         143.4512  137.7700  160.6647 C.ar    1  UNL1        0.0402
     19 C         142.1498  138.1577  160.0275 C.ar    1  UNL1        0.1761
     20 C         141.2241  139.1062  160.7298 C.ar    1  UNL1        0.1728
     21 O         140.0171  139.3042  159.8614 O.3     1  UNL1       -0.4349
     22 C         140.1969  138.4781  158.6224 C.3     1  UNL1        0.4294
     23 O         141.5150  137.7695  158.7251 O.3     1  UNL1       -0.4346
     24 C         139.9988  141.7122  162.0025 C.3     1  UNL1        0.1160
     25 O         138.6742  141.0375  162.2032 O.3     1  UNL1       -0.3820
     26 H         138.8026  140.0766  162.2365 H       1  UNL1        0.2107
     27 C         141.3233  142.3869  161.8018 C.ar    1  UNL1        0.0064
     28 C         141.9498  143.1586  162.9252 C.ar    1  UNL1        0.0235
     29 C         143.2743  143.8333  162.7246 C.ar    1  UNL1        0.1070
     30 N         143.9724  143.7364  161.4004 N.ar    1  UNL1       -0.2330
     31 C         143.3460  142.9648  160.2770 C.ar    1  UNL1        0.1070
     32 C         142.0214  142.2900  160.4777 C.ar    1  UNL1        0.0235
     33 S         143.9009  144.6050  163.8480 S.3     1  UNL1       -0.0940
     34 C         144.4168  143.8831  165.0575 C.3     1  UNL1        0.0757
     35 S         144.0441  142.8679  158.9529 S.3     1  UNL1       -0.0940
     36 C         143.3059  143.1994  157.6899 C.3     1  UNL1        0.0757
     37 C         139.3236  142.8088  161.2333 C.3     1  UNL1        0.0491
     38 C         138.4191  143.7740  161.9407 C.3     1  UNL1        0.0750
     39 N         139.0030  144.9056  162.7336 N.3     1  UNL1       -0.2702
     40 C         138.9466  144.8786  164.2323 C.3     1  UNL1        0.0897
     41 C         139.6432  146.0640  162.0279 C.3     1  UNL1        0.0897
@<TRIPOS>BOND
     1    13    14    1
     2    14     2    1
     3     2     3   ar
     4     3     4   ar
     5     4     5   ar
     6     5     6   ar
     7     6     7   ar
     8     7     8    1
     9     7     9   ar
    10     9    10   ar
    11    10    11   ar
    12    11    12   ar
    13     1    12    1
    14     1    15    1
    15    15    16   ar
    16    16    17   ar
    17    17    18   ar
    18    18    19   ar
    19    19    20   ar
    20    20    21    1
    21    21    22    1
    22    22    23    1
    23     1    24    1
    24    24    25    1
    25    24    37    1
    26    37    38    1
    27    38    39    1
    28    39    40    1
    29    39    41    1
    30    24    27    1
    31    27    28   ar
    32    28    29   ar
    33    29    33    1
    34    33    34    1
    35    29    30   ar
    36    30    31   ar
    37    31    35    1
    38    35    36    1
    39    31    32   ar
    40    12     2   ar
    41    20    15   ar
    42    32    27   ar
    43    10     4   ar
    44    23    19    1
    45    25    26    1
@<TRIPOS>MOLECULE
*****
 41 45 0 0 0
SMALL
GASTEIGER

@<TRIPOS>ATOM
      1 C         139.4744  140.8166  164.5353 C.3     1  UNL1        0.0807
      2 C         139.0561  139.9439  166.9464 C.ar    1  UNL1        0.2211
      3 N         139.4557  139.8748  168.3905 N.ar    1  UNL1       -0.2119
      4 C         140.6735  140.6093  168.8677 C.ar    1  UNL1        0.0844
      5 C         141.0731  140.5401  170.3118 C.ar    1  UNL1        0.0197
      6 C         142.2908  141.2746  170.7890 C.ar    1  UNL1        0.0082
      7 C         143.1088  142.0782  169.8220 C.ar    1  UNL1        0.0347
      8 BR        144.3266  142.8127  170.2993 Br      1  UNL1       -0.0490
      9 C         142.7092  142.1474  168.3779 C.ar    1  UNL1        0.0082
     10 C         141.4915  141.4129  167.9008 C.ar    1  UNL1        0.0181
     11 C         141.0918  141.4820  166.4566 C.ar    1  UNL1        0.0023
     12 C         139.8741  140.7475  165.9795 C.ar    1  UNL1        0.0375
     13 C         137.7097  137.7345  166.7100 C.3     1  UNL1        0.2542
     14 O         137.8383  139.2094  166.4692 O.3     1  UNL1       -0.4563
     15 C         139.2288  142.1473  163.8880 C.ar    1  UNL1        0.0215
     16 C         137.8262  142.6510  163.7176 C.ar    1  UNL1       -0.0007
     17 C         137.5806  143.9816  163.0703 C.ar    1  UNL1        0.0030
     18 C         138.7376  144.8086  162.5933 C.ar    1  UNL1        0.0402
     19 C         140.1402  144.3049  162.7637 C.ar    1  UNL1        0.1761
     20 C         140.3858  142.9743  163.4110 C.ar    1  UNL1        0.1728
     21 O         141.8671  142.7406  163.4427 O.3     1  UNL1       -0.4349
     22 C         142.5371  143.9268  162.8150 C.3     1  UNL1        0.4294
     23 O         141.4698  144.8936  162.3953 O.3     1  UNL1       -0.4346
     24 C         139.3203  139.5552  163.7386 C.3     1  UNL1        0.1160
     25 O         137.8290  139.7108  163.7806 O.3     1  UNL1       -0.3820
     26 H         137.5722  140.1423  164.6105 H       1  UNL1        0.2107
     27 C         140.8116  139.3996  163.6965 C.ar    1  UNL1        0.0064
     28 C         141.5720  139.7901  162.4639 C.ar    1  UNL1        0.0235
     29 C         143.0633  139.6345  162.4218 C.ar    1  UNL1        0.1070
     30 N         143.7942  139.0884  163.6124 N.ar    1  UNL1       -0.2330
     31 C         143.0339  138.6978  164.8450 C.ar    1  UNL1        0.1070
     32 C         141.5426  138.8534  164.8871 C.ar    1  UNL1        0.0235
     33 S         143.8237  140.0251  161.1892 S.3     1  UNL1       -0.0940
     34 C         143.6273  139.2611  159.9133 C.3     1  UNL1        0.0757
     35 S         143.7649  138.1517  166.0355 S.3     1  UNL1       -0.0940
     36 C         143.3420  138.5440  167.4201 C.3     1  UNL1        0.0757
     37 C         139.1662  138.2937  162.9418 C.3     1  UNL1        0.0491
     38 C         138.2503  138.2638  161.7543 C.3     1  UNL1        0.0750
     39 N         138.5532  139.1081  160.5520 N.3     1  UNL1       -0.2702
     40 C         139.5504  138.6359  159.5359 C.3     1  UNL1        0.0897
     41 C         137.8589  140.4247  160.3660 C.3     1  UNL1        0.0897
@<TRIPOS>BOND
     1    13    14    1
     2    14     2    1
     3     2     3   ar
     4     3     4   ar
     5     4     5   ar
     6     5     6   ar
     7     6     7   ar
     8     7     8    1
     9     7     9   ar
    10     9    10   ar
    11    10    11   ar
    12    11    12   ar
    13     1    12    1
    14     1    15    1
    15    15    16   ar
    16    16    17   ar
    17    17    18   ar
    18    18    19   ar
    19    19    20   ar
    20    20    21    1
    21    21    22    1
    22    22    23    1
    23     1    24    1
    24    24    25    1
    25    24    37    1
    26    37    38    1
    27    38    39    1
    28    39    40    1
    29    39    41    1
    30    24    27    1
    31    27    28   ar
    32    28    29   ar
    33    29    33    1
    34    33    34    1
    35    29    30   ar
    36    30    31   ar
    37    31    35    1
    38    35    36    1
    39    31    32   ar
    40    12     2   ar
    41    20    15   ar
    42    32    27   ar
    43    10     4   ar
    44    23    19    1
    45    25    26    1
@<TRIPOS>MOLECULE
*****
 41 45 0 0 0
SMALL
GASTEIGER

@<TRIPOS>ATOM
      1 C         140.3927  141.3361  161.6566 C.3     1  UNL1        0.0807
      2 C         138.7414  140.2128  163.3185 C.ar    1  UNL1        0.2211
      3 N         138.3878  139.7935  164.7146 N.ar    1  UNL1       -0.2119
      4 C         139.3318  140.0781  165.8450 C.ar    1  UNL1        0.0844
      5 C         138.9782  139.6588  167.2411 C.ar    1  UNL1        0.0197
      6 C         139.9222  139.9434  168.3715 C.ar    1  UNL1        0.0082
      7 C         141.2198  140.6473  168.1058 C.ar    1  UNL1        0.0347
      8 BR        142.1638  140.9319  169.2363 Br      1  UNL1       -0.0490
      9 C         141.5734  141.0667  166.7097 C.ar    1  UNL1        0.0082
     10 C         140.6294  140.7820  165.5793 C.ar    1  UNL1        0.0181
     11 C         140.9830  141.2014  164.1832 C.ar    1  UNL1        0.0023
     12 C         140.0390  140.9168  163.0528 C.ar    1  UNL1        0.0375
     13 C         137.6365  138.5260  161.6802 C.3     1  UNL1        0.2542
     14 O         137.7974  139.9282  162.1880 O.3     1  UNL1       -0.4563
     15 C         140.6824  140.2987  160.6127 C.ar    1  UNL1        0.0215
     16 C         139.8759  140.2612  159.3484 C.ar    1  UNL1       -0.0007
     17 C         140.1657  139.2238  158.3045 C.ar    1  UNL1        0.0030
     18 C         141.2620  138.2239  158.5247 C.ar    1  UNL1        0.0402
     19 C         142.0684  138.2615  159.7889 C.ar    1  UNL1        0.1761
     20 C         141.7787  139.2989  160.8329 C.ar    1  UNL1        0.1728
     21 O         142.7339  139.0910  161.9705 O.3     1  UNL1       -0.4349
     22 C         143.6141  137.9252  161.6297 C.3     1  UNL1        0.4294
     23 O         143.2028  137.4125  160.2814 O.3     1  UNL1       -0.4346
     24 C         140.4565  142.7928  161.3045 C.3     1  UNL1        0.1160
     25 O         138.9851  142.9205  161.5663 O.3     1  UNL1       -0.3820
     26 H         138.5435  142.0858  161.3446 H       1  UNL1        0.2107
     27 C         141.9279  142.6650  161.0427 C.ar    1  UNL1        0.0064
     28 C         142.8778  142.4580  162.1850 C.ar    1  UNL1        0.0235
     29 C         144.3492  142.3303  161.9232 C.ar    1  UNL1        0.1070
     30 N         144.8708  142.4095  160.5191 N.ar    1  UNL1       -0.2330
     31 C         143.9210  142.6164  159.3767 C.ar    1  UNL1        0.1070
     32 C         142.4495  142.7442  159.6385 C.ar    1  UNL1        0.0235
     33 S         145.2991  142.1233  163.0656 S.3     1  UNL1       -0.0940
     34 C         145.3123  140.8170  163.8027 C.3     1  UNL1        0.0757
     35 S         144.4426  142.6956  157.9726 S.3     1  UNL1       -0.0940
     36 C         143.6674  142.0749  156.8484 C.3     1  UNL1        0.0757
     37 C         140.5203  144.2494  160.9524 C.3     1  UNL1        0.0491
     38 C         140.0961  145.2824  161.9539 C.3     1  UNL1        0.0750
     39 N         140.4854  145.1342  163.3949 N.3     1  UNL1       -0.2702
     40 C         141.9063  145.3664  163.8157 C.3     1  UNL1        0.0897
     41 C         139.4537  144.7537  164.4151 C.3     1  UNL1        0.0897
@<TRIPOS>BOND
     1    13    14    1
     2    14     2    1
     3     2     3   ar
     4     3     4   ar
     5     4     5   ar
     6     5     6   ar
     7     6     7   ar
     8     7     8    1
     9     7     9   ar
    10     9    10   ar
    11    10    11   ar
    12    11    12   ar
    13     1    12    1
    14     1    15    1
    15    15    16   ar
    16    16    17   ar
    17    17    18   ar
    18    18    19   ar
    19    19    20   ar
    20    20    21    1
    21    21    22    1
    22    22    23    1
    23     1    24    1
    24    24    25    1
    25    24    37    1
    26    37    38    1
    27    38    39    1
    28    39    40    1
    29    39    41    1
    30    24    27    1
    31    27    28   ar
    32    28    29   ar
    33    29    33    1
    34    33    34    1
    35    29    30   ar
    36    30    31   ar
    37    31    35    1
    38    35    36    1
    39    31    32   ar
    40    12     2   ar
    41    20    15   ar
    42    32    27   ar
    43    10     4   ar
    44    23    19    1
    45    25    26    1
