@<TRIPOS>MOLECULE
*****
 29 32 0 0 0
SMALL
GASTEIGER

@<TRIPOS>ATOM
      1 C         137.3617  141.0129  162.6079 C.3     1  UNL1        0.0233
      2 C         138.2607  141.3848  163.7496 C.3     1  UNL1        0.0956
      3 C         138.3293  140.5097  164.9660 C.3     1  UNL1        0.1135
      4 N         139.2282  140.8816  166.1077 N.am    1  UNL1       -0.2726
      5 C         139.2968  140.0064  167.3240 C.2     1  UNL1        0.2491
      6 O         138.4664  138.7595  167.3987 O.2     1  UNL1       -0.2699
      7 C         140.0586  142.1285  166.0331 C.3     1  UNL1        0.1152
      8 C         139.9900  143.0036  164.8168 C.3     1  UNL1        0.1153
      9 N         139.0910  142.6317  163.6750 N.am    1  UNL1       -0.2716
     10 C         139.0224  143.5068  162.4587 C.2     1  UNL1        0.2883
     11 O         138.1235  143.1349  161.3170 O.2     1  UNL1       -0.2664
     12 C         140.1957  140.3783  168.4658 C.ar    1  UNL1        0.0536
     13 C         141.6319  139.9456  168.4613 C.ar    1  UNL1        0.0045
     14 C         142.5309  140.3175  169.6031 C.ar    1  UNL1        0.0001
     15 C         141.9937  141.1221  170.7493 C.ar    1  UNL1        0.0000
     16 C         140.5575  141.5549  170.7538 C.ar    1  UNL1        0.0001
     17 C         139.6585  141.1830  169.6120 C.ar    1  UNL1        0.0045
     18 C         139.8528  144.7538  162.3841 C.2     1  UNL1        0.2502
     19 O         139.2106  146.0624  162.0307 O.2     1  UNL1       -0.2816
     20 C         141.3254  144.6921  162.6628 C.ar    1  UNL1        0.0656
     21 C         142.0491  145.4322  163.7484 C.ar    1  UNL1        0.1039
     22 N         143.5038  145.0769  163.6613 N.ar    1  UNL1       -0.2269
     23 C         143.6792  144.1172  162.5219 C.ar    1  UNL1        0.1407
     24 N         144.8909  143.4292  161.9666 N.ar    1  UNL1       -0.3374
     25 C         144.7563  142.5033  160.7942 C.ar    1  UNL1        0.0735
     26 C         143.4099  142.2655  160.1771 C.ar    1  UNL1        0.0186
     27 C         142.1982  142.9535  160.7323 C.ar    1  UNL1        0.0047
     28 C         142.3329  143.8794  161.9048 C.ar    1  UNL1        0.0387
     29 H         145.7745  143.5852  162.3717 H       1  UNL1        0.1674
@<TRIPOS>BOND
     1     2     1    1
     2     2     3    1
     3     3     4    1
     4     4     5   am
     5     5     6    2
     6     5    12    1
     7    12    13   ar
     8    13    14   ar
     9    14    15   ar
    10    15    16   ar
    11    16    17   ar
    12     4     7    1
    13     7     8    1
    14     8     9    1
    15     9    10   am
    16    10    11    2
    17    10    18    1
    18    18    19    2
    19    18    20    1
    20    20    21   ar
    21    21    22   ar
    22    22    23   ar
    23    23    24   ar
    24    24    25   ar
    25    25    26   ar
    26    26    27   ar
    27    27    28   ar
    28     9     2    1
    29    28    20   ar
    30    17    12   ar
    31    28    23    1
    32    24    29    1
@<TRIPOS>MOLECULE
*****
 29 32 0 0 0
SMALL
GASTEIGER

@<TRIPOS>ATOM
      1 C         137.3461  140.9654  162.8736 C.3     1  UNL1        0.0233
      2 C         138.3716  141.5828  163.7776 C.3     1  UNL1        0.0956
      3 C         138.6112  141.0086  165.1424 C.3     1  UNL1        0.1135
      4 N         139.6366  141.6260  166.0464 N.am    1  UNL1       -0.2726
      5 C         139.8762  141.0517  167.4113 C.2     1  UNL1        0.2491
      6 O         139.0903  139.8601  167.8722 O.2     1  UNL1       -0.2699
      7 C         140.4226  142.8176  165.5856 C.3     1  UNL1        0.1152
      8 C         140.1830  143.3918  164.2207 C.3     1  UNL1        0.1153
      9 N         139.1575  142.7744  163.3167 N.am    1  UNL1       -0.2716
     10 C         138.9179  143.3486  161.9519 C.2     1  UNL1        0.2883
     11 O         137.8924  142.7311  161.0479 O.2     1  UNL1       -0.2664
     12 C         140.9017  141.6691  168.3153 C.ar    1  UNL1        0.0536
     13 C         140.5318  142.8355  169.1828 C.ar    1  UNL1        0.0045
     14 C         141.5572  143.4529  170.0868 C.ar    1  UNL1        0.0001
     15 C         142.9527  142.9039  170.1233 C.ar    1  UNL1        0.0000
     16 C         143.3226  141.7375  169.2557 C.ar    1  UNL1        0.0001
     17 C         142.2971  141.1201  168.3518 C.ar    1  UNL1        0.0045
     18 C         139.7038  144.5402  161.4909 C.2     1  UNL1        0.2502
     19 O         139.3007  145.9181  161.9254 O.2     1  UNL1       -0.2816
     20 C         140.8928  144.3539  160.5956 C.ar    1  UNL1        0.0656
     21 C         142.1495  143.6118  160.9418 C.ar    1  UNL1        0.1039
     22 N         143.0671  143.6762  159.7570 N.ar    1  UNL1       -0.2269
     23 C         142.3775  144.4581  158.6785 C.ar    1  UNL1        0.1407
     24 N         142.7997  144.8428  157.2915 N.ar    1  UNL1       -0.3374
     25 C         141.8779  145.6463  156.4228 C.ar    1  UNL1        0.0735
     26 C         140.5341  146.0652  156.9411 C.ar    1  UNL1        0.0186
     27 C         140.1119  145.6805  158.3281 C.ar    1  UNL1        0.0047
     28 C         141.0337  144.8769  159.1968 C.ar    1  UNL1        0.0387
     29 H         143.6817  144.5679  156.9514 H       1  UNL1        0.1674
@<TRIPOS>BOND
     1     2     1    1
     2     2     3    1
     3     3     4    1
     4     4     5   am
     5     5     6    2
     6     5    12    1
     7    12    13   ar
     8    13    14   ar
     9    14    15   ar
    10    15    16   ar
    11    16    17   ar
    12     4     7    1
    13     7     8    1
    14     8     9    1
    15     9    10   am
    16    10    11    2
    17    10    18    1
    18    18    19    2
    19    18    20    1
    20    20    21   ar
    21    21    22   ar
    22    22    23   ar
    23    23    24   ar
    24    24    25   ar
    25    25    26   ar
    26    26    27   ar
    27    27    28   ar
    28     9     2    1
    29    28    20   ar
    30    17    12   ar
    31    28    23    1
    32    24    29    1
@<TRIPOS>MOLECULE
*****
 29 32 0 0 0
SMALL
GASTEIGER

@<TRIPOS>ATOM
      1 C         144.8118  140.2226  162.7082 C.3     1  UNL1        0.0233
      2 C         144.0380  140.7420  163.8835 C.3     1  UNL1        0.0956
      3 C         143.8652  139.8879  165.1045 C.3     1  UNL1        0.1135
      4 N         143.0915  140.4073  166.2798 N.am    1  UNL1       -0.2726
      5 C         142.9187  139.5531  167.5007 C.2     1  UNL1        0.2491
      6 O         143.5197  138.1795  167.5463 O.2     1  UNL1       -0.2699
      7 C         142.4904  141.7809  166.2343 C.3     1  UNL1        0.1152
      8 C         142.6632  142.6350  165.0134 C.3     1  UNL1        0.1153
      9 N         143.4370  142.1156  163.8381 N.am    1  UNL1       -0.2716
     10 C         143.6098  142.9697  162.6171 C.2     1  UNL1        0.2883
     11 O         144.3836  142.4502  161.4418 O.2     1  UNL1       -0.2664
     12 C         142.1449  140.0726  168.6760 C.ar    1  UNL1        0.0536
     13 C         140.6487  139.9681  168.6944 C.ar    1  UNL1        0.0045
     14 C         139.8749  140.4875  169.8697 C.ar    1  UNL1        0.0001
     15 C         140.5973  141.1115  171.0268 C.ar    1  UNL1        0.0000
     16 C         142.0935  141.2160  171.0084 C.ar    1  UNL1        0.0001
     17 C         142.8673  140.6965  169.8331 C.ar    1  UNL1        0.0045
     18 C         143.0088  144.3433  162.5716 C.2     1  UNL1        0.2502
     19 O         143.7963  145.5230  163.0593 O.2     1  UNL1       -0.2816
     20 C         141.6202  144.5371  162.0382 C.ar    1  UNL1        0.0656
     21 C         141.2570  144.8433  160.6155 C.ar    1  UNL1        0.1039
     22 N         139.7635  144.9541  160.5320 N.ar    1  UNL1       -0.2269
     23 C         139.2036  144.7164  161.9032 C.ar    1  UNL1        0.1407
     24 N         137.7972  144.7014  162.4243 N.ar    1  UNL1       -0.3374
     25 C         137.5383  144.4286  163.8764 C.ar    1  UNL1        0.0735
     26 C         138.6859  144.1708  164.8073 C.ar    1  UNL1        0.0186
     27 C         140.0923  144.1859  164.2862 C.ar    1  UNL1        0.0047
     28 C         140.3512  144.4587  162.8341 C.ar    1  UNL1        0.0387
     29 H         137.0440  144.8705  161.8133 H       1  UNL1        0.1674
@<TRIPOS>BOND
     1     2     1    1
     2     2     3    1
     3     3     4    1
     4     4     5   am
     5     5     6    2
     6     5    12    1
     7    12    13   ar
     8    13    14   ar
     9    14    15   ar
    10    15    16   ar
    11    16    17   ar
    12     4     7    1
    13     7     8    1
    14     8     9    1
    15     9    10   am
    16    10    11    2
    17    10    18    1
    18    18    19    2
    19    18    20    1
    20    20    21   ar
    21    21    22   ar
    22    22    23   ar
    23    23    24   ar
    24    24    25   ar
    25    25    26   ar
    26    26    27   ar
    27    27    28   ar
    28     9     2    1
    29    28    20   ar
    30    17    12   ar
    31    28    23    1
    32    24    29    1
@<TRIPOS>MOLECULE
*****
 29 32 0 0 0
SMALL
GASTEIGER

@<TRIPOS>ATOM
      1 C         138.8610  137.7022  163.3108 C.3     1  UNL1        0.0233
      2 C         139.6241  138.5356  164.2972 C.3     1  UNL1        0.0956
      3 C         139.1002  138.7153  165.6912 C.3     1  UNL1        0.1135
      4 N         139.8633  139.5487  166.6776 N.am    1  UNL1       -0.2726
      5 C         139.3393  139.7284  168.0717 C.2     1  UNL1        0.2491
      6 O         138.0523  139.0747  168.4792 O.2     1  UNL1       -0.2699
      7 C         141.1504  140.2025  166.2701 C.3     1  UNL1        0.1152
      8 C         141.6743  140.0228  164.8761 C.3     1  UNL1        0.1153
      9 N         140.9112  139.1893  163.8897 N.am    1  UNL1       -0.2716
     10 C         141.4351  139.0096  162.4957 C.2     1  UNL1        0.2883
     11 O         140.6719  138.1762  161.5093 O.2     1  UNL1       -0.2664
     12 C         140.1025  140.5618  169.0581 C.ar    1  UNL1        0.0536
     13 C         141.0356  139.9050  170.0316 C.ar    1  UNL1        0.0045
     14 C         141.7988  140.7385  171.0180 C.ar    1  UNL1        0.0001
     15 C         141.6288  142.2287  171.0309 C.ar    1  UNL1        0.0000
     16 C         140.6956  142.8855  170.0574 C.ar    1  UNL1        0.0001
     17 C         139.9325  142.0521  169.0710 C.ar    1  UNL1        0.0045
     18 C         142.7222  139.6634  162.0881 C.2     1  UNL1        0.2502
     19 O         144.0115  138.9023  162.1788 O.2     1  UNL1       -0.2816
     20 C         142.7199  141.0782  161.5899 C.ar    1  UNL1        0.0656
     21 C         142.3091  141.5299  160.2198 C.ar    1  UNL1        0.1039
     22 N         142.4633  143.0206  160.1575 N.ar    1  UNL1       -0.2269
     23 C         142.9694  143.4903  161.4892 C.ar    1  UNL1        0.1407
     24 N         143.3063  144.8560  162.0100 N.ar    1  UNL1       -0.3374
     25 C         143.8018  145.0213  163.4160 C.ar    1  UNL1        0.0735
     26 C         143.9604  143.8208  164.3013 C.ar    1  UNL1        0.0186
     27 C         143.6235  142.4551  163.7805 C.ar    1  UNL1        0.0047
     28 C         143.1280  142.2899  162.3745 C.ar    1  UNL1        0.0387
     29 H         143.2022  145.6439  161.4289 H       1  UNL1        0.1674
@<TRIPOS>BOND
     1     2     1    1
     2     2     3    1
     3     3     4    1
     4     4     5   am
     5     5     6    2
     6     5    12    1
     7    12    13   ar
     8    13    14   ar
     9    14    15   ar
    10    15    16   ar
    11    16    17   ar
    12     4     7    1
    13     7     8    1
    14     8     9    1
    15     9    10   am
    16    10    11    2
    17    10    18    1
    18    18    19    2
    19    18    20    1
    20    20    21   ar
    21    21    22   ar
    22    22    23   ar
    23    23    24   ar
    24    24    25   ar
    25    25    26   ar
    26    26    27   ar
    27    27    28   ar
    28     9     2    1
    29    28    20   ar
    30    17    12   ar
    31    28    23    1
    32    24    29    1
@<TRIPOS>MOLECULE
*****
 29 32 0 0 0
SMALL
GASTEIGER

@<TRIPOS>ATOM
      1 C         142.6886  137.9896  162.4802 C.3     1  UNL1        0.0233
      2 C         141.9610  138.8649  163.4572 C.3     1  UNL1        0.0956
      3 C         142.3585  138.8663  164.9035 C.3     1  UNL1        0.1135
      4 N         141.6310  139.7416  165.8805 N.am    1  UNL1       -0.2726
      5 C         142.0286  139.7430  167.3269 C.2     1  UNL1        0.2491
      6 O         143.1538  138.8691  167.7963 O.2     1  UNL1       -0.2699
      7 C         140.5058  140.6155  165.4112 C.3     1  UNL1        0.1152
      8 C         140.1082  140.6141  163.9649 C.3     1  UNL1        0.1153
      9 N         140.8358  139.7388  162.9879 N.am    1  UNL1       -0.2716
     10 C         140.4382  139.7374  161.5415 C.2     1  UNL1        0.2883
     11 O         141.1658  138.8621  160.5646 O.2     1  UNL1       -0.2664
     12 C         141.3010  140.6182  168.3038 C.ar    1  UNL1        0.0536
     13 C         141.8011  142.0039  168.5864 C.ar    1  UNL1        0.0045
     14 C         141.0735  142.8792  169.5634 C.ar    1  UNL1        0.0001
     15 C         139.8458  142.3688  170.2578 C.ar    1  UNL1        0.0000
     16 C         139.3457  140.9832  169.9753 C.ar    1  UNL1        0.0001
     17 C         140.0733  140.1079  168.9983 C.ar    1  UNL1        0.0045
     18 C         139.3130  140.6113  161.0721 C.2     1  UNL1        0.2502
     19 O         137.8915  140.1926  161.3037 O.2     1  UNL1       -0.2816
     20 C         139.6095  141.9039  160.3712 C.ar    1  UNL1        0.0656
     21 C         139.9945  142.0570  158.9295 C.ar    1  UNL1        0.1039
     22 N         140.1959  143.5180  158.6562 N.ar    1  UNL1       -0.2269
     23 C         139.9355  144.2679  159.9290 C.ar    1  UNL1        0.1407
     24 N         139.9816  145.7303  160.2597 N.ar    1  UNL1       -0.3374
     25 C         139.6652  146.1950  161.6503 C.ar    1  UNL1        0.0735
     26 C         139.3027  145.1974  162.7102 C.ar    1  UNL1        0.0186
     27 C         139.2567  143.7351  162.3795 C.ar    1  UNL1        0.0047
     28 C         139.5730  143.2703  160.9889 C.ar    1  UNL1        0.0387
     29 H         140.2194  146.3850  159.5640 H       1  UNL1        0.1674
@<TRIPOS>BOND
     1     2     1    1
     2     2     3    1
     3     3     4    1
     4     4     5   am
     5     5     6    2
     6     5    12    1
     7    12    13   ar
     8    13    14   ar
     9    14    15   ar
    10    15    16   ar
    11    16    17   ar
    12     4     7    1
    13     7     8    1
    14     8     9    1
    15     9    10   am
    16    10    11    2
    17    10    18    1
    18    18    19    2
    19    18    20    1
    20    20    21   ar
    21    21    22   ar
    22    22    23   ar
    23    23    24   ar
    24    24    25   ar
    25    25    26   ar
    26    26    27   ar
    27    27    28   ar
    28     9     2    1
    29    28    20   ar
    30    17    12   ar
    31    28    23    1
    32    24    29    1
@<TRIPOS>MOLECULE
*****
 29 32 0 0 0
SMALL
GASTEIGER

@<TRIPOS>ATOM
      1 C         138.9228  138.4077  162.9410 C.3     1  UNL1        0.0233
      2 C         139.7024  139.1339  163.9968 C.3     1  UNL1        0.0956
      3 C         139.2202  139.1356  165.4172 C.3     1  UNL1        0.1135
      4 N         139.9998  139.8619  166.4730 N.am    1  UNL1       -0.2726
      5 C         139.5176  139.8636  167.8934 C.2     1  UNL1        0.2491
      6 O         138.2558  139.1390  168.2580 O.2     1  UNL1       -0.2699
      7 C         141.2616  140.5865  166.1086 C.3     1  UNL1        0.1152
      8 C         141.7438  140.5848  164.6882 C.3     1  UNL1        0.1153
      9 N         140.9642  139.8585  163.6323 N.am    1  UNL1       -0.2716
     10 C         141.4463  139.8568  162.2119 C.2     1  UNL1        0.2883
     11 O         140.6667  139.1305  161.1561 O.2     1  UNL1       -0.2664
     12 C         140.2972  140.5898  168.9493 C.ar    1  UNL1        0.0536
     13 C         140.1011  142.0639  169.1456 C.ar    1  UNL1        0.0045
     14 C         140.8807  142.7902  170.2014 C.ar    1  UNL1        0.0001
     15 C         141.8564  142.0423  171.0610 C.ar    1  UNL1        0.0000
     16 C         142.0525  140.5682  170.8646 C.ar    1  UNL1        0.0001
     17 C         141.2729  139.8420  169.8088 C.ar    1  UNL1        0.0045
     18 C         142.7082  140.5814  161.8474 C.2     1  UNL1        0.2502
     19 O         144.0398  140.0086  162.2325 O.2     1  UNL1       -0.2816
     20 C         142.6382  141.8787  161.0976 C.ar    1  UNL1        0.0656
     21 C         143.3778  142.2084  159.8350 C.ar    1  UNL1        0.1039
     22 N         143.0129  143.6075  159.4360 N.ar    1  UNL1       -0.2269
     23 C         142.0479  144.1426  160.4520 C.ar    1  UNL1        0.1407
     24 N         141.3501  145.4647  160.5748 N.ar    1  UNL1       -0.3374
     25 C         140.4207  145.7184  161.7245 C.ar    1  UNL1        0.0735
     26 C         140.1891  144.6499  162.7514 C.ar    1  UNL1        0.0186
     27 C         140.8869  143.3278  162.6287 C.ar    1  UNL1        0.0047
     28 C         141.8163  143.0742  161.4790 C.ar    1  UNL1        0.0387
     29 H         141.5021  146.1660  159.9007 H       1  UNL1        0.1674
@<TRIPOS>BOND
     1     2     1    1
     2     2     3    1
     3     3     4    1
     4     4     5   am
     5     5     6    2
     6     5    12    1
     7    12    13   ar
     8    13    14   ar
     9    14    15   ar
    10    15    16   ar
    11    16    17   ar
    12     4     7    1
    13     7     8    1
    14     8     9    1
    15     9    10   am
    16    10    11    2
    17    10    18    1
    18    18    19    2
    19    18    20    1
    20    20    21   ar
    21    21    22   ar
    22    22    23   ar
    23    23    24   ar
    24    24    25   ar
    25    25    26   ar
    26    26    27   ar
    27    27    28   ar
    28     9     2    1
    29    28    20   ar
    30    17    12   ar
    31    28    23    1
    32    24    29    1
@<TRIPOS>MOLECULE
*****
 29 32 0 0 0
SMALL
GASTEIGER

@<TRIPOS>ATOM
      1 C         142.5430  141.7758  157.7265 C.3     1  UNL1        0.0233
      2 C         142.1195  140.3484  157.5442 C.3     1  UNL1        0.0956
      3 C         143.0459  139.3696  156.8856 C.3     1  UNL1        0.1135
      4 N         142.6224  137.9422  156.7032 N.am    1  UNL1       -0.2726
      5 C         143.5488  136.9634  156.0446 C.2     1  UNL1        0.2491
      6 O         144.8986  137.4119  155.5683 O.2     1  UNL1       -0.2699
      7 C         141.2726  137.4936  157.1794 C.3     1  UNL1        0.1152
      8 C         140.3463  138.4725  157.8380 C.3     1  UNL1        0.1153
      9 N         140.7698  139.8998  158.0204 N.am    1  UNL1       -0.2716
     10 C         139.8434  140.8787  158.6790 C.2     1  UNL1        0.2883
     11 O         140.2669  142.3061  158.8614 O.2     1  UNL1       -0.2664
     12 C         143.1253  135.5360  155.8622 C.ar    1  UNL1        0.0536
     13 C         142.4528  135.1097  154.5911 C.ar    1  UNL1        0.0045
     14 C         142.0293  133.6824  154.4087 C.ar    1  UNL1        0.0001
     15 C         142.2784  132.6812  155.4976 C.ar    1  UNL1        0.0000
     16 C         142.9509  133.1075  156.7687 C.ar    1  UNL1        0.0001
     17 C         143.3744  134.5348  156.9511 C.ar    1  UNL1        0.0045
     18 C         138.4935  140.4301  159.1553 C.2     1  UNL1        0.2502
     19 O         137.3626  140.2903  158.1800 O.2     1  UNL1       -0.2816
     20 C         138.2748  140.1214  160.6068 C.ar    1  UNL1        0.0656
     21 C         138.2256  138.7532  161.2195 C.ar    1  UNL1        0.1039
     22 N         137.9873  138.9130  162.6918 N.ar    1  UNL1       -0.2269
     23 C         137.8892  140.3800  162.9890 C.ar    1  UNL1        0.1407
     24 N         137.6610  141.1321  164.2665 N.ar    1  UNL1       -0.3374
     25 C         137.6106  142.6312  164.2554 C.ar    1  UNL1        0.0735
     26 C         137.7883  143.3781  162.9668 C.ar    1  UNL1        0.0186
     27 C         138.0165  142.6259  161.6893 C.ar    1  UNL1        0.0047
     28 C         138.0669  141.1268  161.7004 C.ar    1  UNL1        0.0387
     29 H         137.5444  140.6419  165.1123 H       1  UNL1        0.1674
@<TRIPOS>BOND
     1     2     1    1
     2     2     3    1
     3     3     4    1
     4     4     5   am
     5     5     6    2
     6     5    12    1
     7    12    13   ar
     8    13    14   ar
     9    14    15   ar
    10    15    16   ar
    11    16    17   ar
    12     4     7    1
    13     7     8    1
    14     8     9    1
    15     9    10   am
    16    10    11    2
    17    10    18    1
    18    18    19    2
    19    18    20    1
    20    20    21   ar
    21    21    22   ar
    22    22    23   ar
    23    23    24   ar
    24    24    25   ar
    25    25    26   ar
    26    26    27   ar
    27    27    28   ar
    28     9     2    1
    29    28    20   ar
    30    17    12   ar
    31    28    23    1
    32    24    29    1
@<TRIPOS>MOLECULE
*****
 29 32 0 0 0
SMALL
GASTEIGER

@<TRIPOS>ATOM
      1 C         144.5984  139.8767  162.8118 C.3     1  UNL1        0.0233
      2 C         143.8999  140.6000  163.9249 C.3     1  UNL1        0.0956
      3 C         143.6562  139.9072  165.2329 C.3     1  UNL1        0.1135
      4 N         142.9578  140.6305  166.3460 N.am    1  UNL1       -0.2726
      5 C         142.7142  139.9376  167.6539 C.2     1  UNL1        0.2491
      6 O         143.1690  138.5216  167.8488 O.2     1  UNL1       -0.2699
      7 C         142.5029  142.0465  166.1512 C.3     1  UNL1        0.1152
      8 C         142.7465  142.7392  164.8432 C.3     1  UNL1        0.1153
      9 N         143.4450  142.0160  163.7301 N.am    1  UNL1       -0.2716
     10 C         143.6886  142.7087  162.4222 C.2     1  UNL1        0.2883
     11 O         144.3871  141.9854  161.3091 O.2     1  UNL1       -0.2664
     12 C         142.0157  140.6609  168.7670 C.ar    1  UNL1        0.0536
     13 C         142.8071  141.4844  169.7393 C.ar    1  UNL1        0.0045
     14 C         142.1086  142.2076  170.8524 C.ar    1  UNL1        0.0001
     15 C         140.6186  142.1074  170.9932 C.ar    1  UNL1        0.0000
     16 C         139.8272  141.2840  170.0209 C.ar    1  UNL1        0.0001
     17 C         140.5257  140.5607  168.9078 C.ar    1  UNL1        0.0045
     18 C         143.2338  144.1248  162.2273 C.2     1  UNL1        0.2502
     19 O         144.0869  145.2598  162.7109 O.2     1  UNL1       -0.2816
     20 C         141.9258  144.4058  161.5488 C.ar    1  UNL1        0.0656
     21 C         140.6861  144.9335  162.2080 C.ar    1  UNL1        0.1039
     22 N         139.6221  145.0622  161.1586 N.ar    1  UNL1       -0.2269
     23 C         140.2042  144.6140  159.8508 C.ar    1  UNL1        0.1407
     24 N         139.6217  144.5229  158.4716 N.ar    1  UNL1       -0.3374
     25 C         140.4631  144.0261  157.3335 C.ar    1  UNL1        0.0735
     26 C         141.8869  143.6204  157.5747 C.ar    1  UNL1        0.0186
     27 C         142.4693  143.7115  158.9539 C.ar    1  UNL1        0.0047
     28 C         141.6280  144.2083  160.0920 C.ar    1  UNL1        0.0387
     29 H         138.6872  144.7892  158.3133 H       1  UNL1        0.1674
@<TRIPOS>BOND
     1     2     1    1
     2     2     3    1
     3     3     4    1
     4     4     5   am
     5     5     6    2
     6     5    12    1
     7    12    13   ar
     8    13    14   ar
     9    14    15   ar
    10    15    16   ar
    11    16    17   ar
    12     4     7    1
    13     7     8    1
    14     8     9    1
    15     9    10   am
    16    10    11    2
    17    10    18    1
    18    18    19    2
    19    18    20    1
    20    20    21   ar
    21    21    22   ar
    22    22    23   ar
    23    23    24   ar
    24    24    25   ar
    25    25    26   ar
    26    26    27   ar
    27    27    28   ar
    28     9     2    1
    29    28    20   ar
    30    17    12   ar
    31    28    23    1
    32    24    29    1
@<TRIPOS>MOLECULE
*****
 29 32 0 0 0
SMALL
GASTEIGER

@<TRIPOS>ATOM
      1 C         144.4703  139.1601  163.1365 C.3     1  UNL1        0.0233
      2 C         143.5602  139.9690  164.0125 C.3     1  UNL1        0.0956
      3 C         143.4543  139.6561  165.4757 C.3     1  UNL1        0.1135
      4 N         142.5443  140.4651  166.3517 N.am    1  UNL1       -0.2726
      5 C         142.4384  140.1521  167.8149 C.2     1  UNL1        0.2491
      6 O         143.2426  139.0303  168.4020 O.2     1  UNL1       -0.2699
      7 C         141.7401  141.5869  165.7646 C.3     1  UNL1        0.1152
      8 C         141.8460  141.8998  164.3014 C.3     1  UNL1        0.1153
      9 N         142.7560  141.0909  163.4254 N.am    1  UNL1       -0.2716
     10 C         142.8619  141.4038  161.9622 C.2     1  UNL1        0.2883
     11 O         143.7720  140.5948  161.0862 O.2     1  UNL1       -0.2664
     12 C         141.5284  140.9610  168.6909 C.ar    1  UNL1        0.0536
     13 C         141.9451  142.3284  169.1454 C.ar    1  UNL1        0.0045
     14 C         141.0350  143.1373  170.0214 C.ar    1  UNL1        0.0001
     15 C         139.7082  142.5789  170.4429 C.ar    1  UNL1        0.0000
     16 C         139.2915  141.2116  169.9884 C.ar    1  UNL1        0.0001
     17 C         140.2016  140.4026  169.1124 C.ar    1  UNL1        0.0045
     18 C         142.0577  142.5257  161.3750 C.2     1  UNL1        0.2502
     19 O         142.7449  143.7688  160.8931 O.2     1  UNL1       -0.2816
     20 C         140.5663  142.4043  161.2698 C.ar    1  UNL1        0.0656
     21 C         139.6007  143.5367  161.0823 C.ar    1  UNL1        0.1039
     22 N         138.2163  142.9615  161.0303 N.ar    1  UNL1       -0.2269
     23 C         138.3264  141.4736  161.1855 C.ar    1  UNL1        0.1407
     24 N         137.2918  140.3879  161.2112 N.ar    1  UNL1       -0.3374
     25 C         137.7096  138.9578  161.3849 C.ar    1  UNL1        0.0735
     26 C         139.1621  138.6134  161.5330 C.ar    1  UNL1        0.0186
     27 C         140.1967  139.6992  161.5073 C.ar    1  UNL1        0.0047
     28 C         139.7788  141.1292  161.3336 C.ar    1  UNL1        0.0387
     29 H         136.3386  140.6139  161.1140 H       1  UNL1        0.1674
@<TRIPOS>BOND
     1     2     1    1
     2     2     3    1
     3     3     4    1
     4     4     5   am
     5     5     6    2
     6     5    12    1
     7    12    13   ar
     8    13    14   ar
     9    14    15   ar
    10    15    16   ar
    11    16    17   ar
    12     4     7    1
    13     7     8    1
    14     8     9    1
    15     9    10   am
    16    10    11    2
    17    10    18    1
    18    18    19    2
    19    18    20    1
    20    20    21   ar
    21    21    22   ar
    22    22    23   ar
    23    23    24   ar
    24    24    25   ar
    25    25    26   ar
    26    26    27   ar
    27    27    28   ar
    28     9     2    1
    29    28    20   ar
    30    17    12   ar
    31    28    23    1
    32    24    29    1
