@<TRIPOS>MOLECULE
*****
 34 38 0 0 0
SMALL
GASTEIGER

@<TRIPOS>ATOM
      1 C         141.7658  138.7149  162.0096 C.ar    1  UNL1        0.0541
      2 C         142.9814  137.8684  161.7738 C.ar    1  UNL1        0.0180
      3 C         143.4081  137.5422  160.3732 C.ar    1  UNL1        0.0382
      4 C         142.6192  138.0626  159.2085 C.ar    1  UNL1        0.1385
      5 C         141.4035  138.9091  159.4442 C.ar    1  UNL1        0.0382
      6 C         140.9768  139.2353  160.8447 C.ar    1  UNL1        0.0180
      7 O         138.8124  139.4067  168.1780 O.2     1  UNL1       -0.2699
      8 C         140.0590  140.0195  167.6118 C.2     1  UNL1        0.2494
      9 N         140.4857  139.6933  166.2112 N.am    1  UNL1       -0.2660
     10 C         141.7322  140.3062  165.6451 C.3     1  UNL1        0.1160
     11 C         142.1589  139.9800  164.2445 C.3     1  UNL1        0.1197
     12 N         141.3391  139.0410  163.4101 N.am    1  UNL1       -0.2555
     13 C         140.0925  138.4282  163.9763 C.2     1  UNL1        0.2497
     14 O         139.2727  137.4892  163.1420 O.2     1  UNL1       -0.2727
     15 C         139.6658  138.7543  165.3768 C.3     1  UNL1        0.1799
     16 C         140.8788  140.9585  168.4462 C.ar    1  UNL1        0.0537
     17 C         140.3997  142.3590  168.6892 C.ar    1  UNL1        0.0068
     18 C         141.2196  143.2979  169.5235 C.ar    1  UNL1        0.0298
     19 C         142.5185  142.8364  170.1149 C.ar    1  UNL1        0.1401
     20 F         143.3383  143.7754  170.9493 F       1  UNL1       -0.2042
     21 C         142.9976  141.4359  169.8719 C.ar    1  UNL1        0.0298
     22 C         142.1778  140.4970  169.0376 C.ar    1  UNL1        0.0068
     23 O         143.0459  137.7365  157.8079 O.3     1  UNL1       -0.4791
     24 C         142.7581  136.3815  157.2325 C.3     1  UNL1        0.1687
     25 C         143.4568  135.1713  157.7777 C.3     1  UNL1        0.0609
     26 C         143.1690  133.8163  157.2023 C.3     1  UNL1        0.0758
     27 N         142.1825  133.6714  156.0817 N.3     1  UNL1       -0.2737
     28 C         141.4837  134.8816  155.5364 C.3     1  UNL1        0.0758
     29 C         141.7715  136.2366  156.1119 C.3     1  UNL1        0.0609
     30 C         141.8947  132.3164  155.5063 C.3     1  UNL1        0.0575
     31 C         142.5562  131.0305  155.9052 C.3     1  UNL1        0.0160
     32 C         141.9651  129.9287  155.0763 C.3     1  UNL1        0.0014
     33 C         140.9385  130.5337  154.1653 C.3     1  UNL1        0.0014
     34 C         140.8950  132.0093  154.4310 C.3     1  UNL1        0.0160
@<TRIPOS>BOND
     1     7     8    2
     2     8    16    1
     3    16    17   ar
     4    17    18   ar
     5    18    19   ar
     6    19    20    1
     7    19    21   ar
     8    21    22   ar
     9     8     9   am
    10     9    10    1
    11    10    11    1
    12    11    12    1
    13    12     1    1
    14     1     2   ar
    15     2     3   ar
    16     3     4   ar
    17     4    23    1
    18    23    24    1
    19    24    25    1
    20    25    26    1
    21    26    27    1
    22    27    30    1
    23    30    31    1
    24    31    32    1
    25    32    33    1
    26    33    34    1
    27    27    28    1
    28    28    29    1
    29     4     5   ar
    30     5     6   ar
    31    12    13   am
    32    13    14    2
    33    13    15    1
    34    22    16   ar
    35    15     9    1
    36     6     1   ar
    37    29    24    1
    38    34    30    1
@<TRIPOS>MOLECULE
*****
 34 38 0 0 0
SMALL
GASTEIGER

@<TRIPOS>ATOM
      1 C         139.6688  141.6195  161.7303 C.ar    1  UNL1        0.0541
      2 C         138.4810  142.3273  161.1488 C.ar    1  UNL1        0.0180
      3 C         138.4136  142.5920  159.6738 C.ar    1  UNL1        0.0382
      4 C         139.5341  142.1489  158.7804 C.ar    1  UNL1        0.1385
      5 C         140.7219  141.4412  159.3619 C.ar    1  UNL1        0.0382
      6 C         140.7893  141.1765  160.8368 C.ar    1  UNL1        0.0180
      7 O         139.0962  139.4779  168.2368 O.2     1  UNL1       -0.2699
      8 C         139.9383  140.5608  167.6299 C.2     1  UNL1        0.2494
      9 N         139.8709  140.8255  166.1550 N.am    1  UNL1       -0.2660
     10 C         140.7131  141.9083  165.5481 C.3     1  UNL1        0.1160
     11 C         140.6457  142.1730  164.0732 C.3     1  UNL1        0.1197
     12 N         139.7362  141.3548  163.2052 N.am    1  UNL1       -0.2555
     13 C         138.8940  140.2720  163.8121 C.2     1  UNL1        0.2497
     14 O         137.9845  139.4539  162.9441 O.2     1  UNL1       -0.2727
     15 C         138.9614  140.0073  165.2869 C.3     1  UNL1        0.1799
     16 C         140.8478  141.3789  168.4980 C.ar    1  UNL1        0.0537
     17 C         142.2585  140.9297  168.7393 C.ar    1  UNL1        0.0068
     18 C         143.1679  141.7479  169.6073 C.ar    1  UNL1        0.0298
     19 C         142.6667  143.0151  170.2341 C.ar    1  UNL1        0.1401
     20 F         143.5762  143.8333  171.1022 F       1  UNL1       -0.2042
     21 C         141.2561  143.4643  169.9928 C.ar    1  UNL1        0.0298
     22 C         140.3466  142.6462  169.1247 C.ar    1  UNL1        0.0068
     23 O         139.4667  142.4136  157.3055 O.3     1  UNL1       -0.4791
     24 C         139.4211  143.8245  156.7980 C.3     1  UNL1        0.1687
     25 C         140.3539  144.8549  157.3618 C.3     1  UNL1        0.0609
     26 C         140.3083  146.2657  156.8543 C.3     1  UNL1        0.0758
     27 N         139.3297  146.6461  155.7831 N.3     1  UNL1       -0.2737
     28 C         138.3967  145.6156  155.2192 C.3     1  UNL1        0.0758
     29 C         138.4424  144.2048  155.7267 C.3     1  UNL1        0.0609
     30 C         139.2840  148.0569  155.2756 C.3     1  UNL1        0.0575
     31 C         138.6197  149.2174  155.9555 C.3     1  UNL1        0.0160
     32 C         138.8198  150.4326  155.0992 C.3     1  UNL1        0.0014
     33 C         139.6076  150.0232  153.8901 C.3     1  UNL1        0.0014
     34 C         139.8945  148.5550  153.9992 C.3     1  UNL1        0.0160
@<TRIPOS>BOND
     1     7     8    2
     2     8    16    1
     3    16    17   ar
     4    17    18   ar
     5    18    19   ar
     6    19    20    1
     7    19    21   ar
     8    21    22   ar
     9     8     9   am
    10     9    10    1
    11    10    11    1
    12    11    12    1
    13    12     1    1
    14     1     2   ar
    15     2     3   ar
    16     3     4   ar
    17     4    23    1
    18    23    24    1
    19    24    25    1
    20    25    26    1
    21    26    27    1
    22    27    30    1
    23    30    31    1
    24    31    32    1
    25    32    33    1
    26    33    34    1
    27    27    28    1
    28    28    29    1
    29     4     5   ar
    30     5     6   ar
    31    12    13   am
    32    13    14    2
    33    13    15    1
    34    22    16   ar
    35    15     9    1
    36     6     1   ar
    37    29    24    1
    38    34    30    1
@<TRIPOS>MOLECULE
*****
 34 38 0 0 0
SMALL
GASTEIGER

@<TRIPOS>ATOM
      1 C         141.1904  138.9517  162.0766 C.ar    1  UNL1        0.0541
      2 C         140.3655  139.5918  160.9997 C.ar    1  UNL1        0.0180
      3 C         140.6697  139.3146  159.5572 C.ar    1  UNL1        0.0382
      4 C         141.7988  138.3973  159.1917 C.ar    1  UNL1        0.1385
      5 C         142.6238  137.7572  160.2685 C.ar    1  UNL1        0.0382
      6 C         142.3196  138.0344  161.7110 C.ar    1  UNL1        0.0180
      7 O         138.7883  139.4152  168.5003 O.2     1  UNL1       -0.2699
      8 C         139.9739  140.0605  167.8463 C.2     1  UNL1        0.2494
      9 N         140.2781  139.7834  166.4039 N.am    1  UNL1       -0.2660
     10 C         141.4637  140.4288  165.7499 C.3     1  UNL1        0.1160
     11 C         141.7678  140.1515  164.3074 C.3     1  UNL1        0.1197
     12 N         140.8863  139.2289  163.5190 N.am    1  UNL1       -0.2555
     13 C         139.7006  138.5835  164.1729 C.2     1  UNL1        0.2497
     14 O         138.8191  137.6609  163.3845 O.2     1  UNL1       -0.2727
     15 C         139.3965  138.8607  165.6154 C.3     1  UNL1        0.1799
     16 C         140.8555  140.9832  168.6348 C.ar    1  UNL1        0.0537
     17 C         142.1552  140.4839  169.1927 C.ar    1  UNL1        0.0068
     18 C         143.0367  141.4065  169.9812 C.ar    1  UNL1        0.0298
     19 C         142.6184  142.8284  170.2118 C.ar    1  UNL1        0.1401
     20 F         143.4999  143.7510  171.0003 F       1  UNL1       -0.2042
     21 C         141.3186  143.3277  169.6539 C.ar    1  UNL1        0.0298
     22 C         140.4372  142.4051  168.8654 C.ar    1  UNL1        0.0068
     23 O         142.1029  138.1201  157.7492 O.3     1  UNL1       -0.4791
     24 C         143.2047  138.8673  157.0580 C.3     1  UNL1        0.1687
     25 C         143.7883  138.3333  155.7836 C.3     1  UNL1        0.0609
     26 C         144.8902  139.0805  155.0924 C.3     1  UNL1        0.0758
     27 N         145.4084  140.3616  155.6756 N.3     1  UNL1       -0.2737
     28 C         144.8248  140.8956  156.9501 C.3     1  UNL1        0.0758
     29 C         143.7229  140.1484  157.6413 C.3     1  UNL1        0.0609
     30 C         146.5102  141.1087  154.9844 C.3     1  UNL1        0.0575
     31 C         147.6333  141.8429  155.6550 C.3     1  UNL1        0.0160
     32 C         148.4996  142.4408  154.5863 C.3     1  UNL1        0.0014
     33 C         147.9119  142.0761  153.2553 C.3     1  UNL1        0.0014
     34 C         146.6824  141.2529  153.5013 C.3     1  UNL1        0.0160
@<TRIPOS>BOND
     1     7     8    2
     2     8    16    1
     3    16    17   ar
     4    17    18   ar
     5    18    19   ar
     6    19    20    1
     7    19    21   ar
     8    21    22   ar
     9     8     9   am
    10     9    10    1
    11    10    11    1
    12    11    12    1
    13    12     1    1
    14     1     2   ar
    15     2     3   ar
    16     3     4   ar
    17     4    23    1
    18    23    24    1
    19    24    25    1
    20    25    26    1
    21    26    27    1
    22    27    30    1
    23    30    31    1
    24    31    32    1
    25    32    33    1
    26    33    34    1
    27    27    28    1
    28    28    29    1
    29     4     5   ar
    30     5     6   ar
    31    12    13   am
    32    13    14    2
    33    13    15    1
    34    22    16   ar
    35    15     9    1
    36     6     1   ar
    37    29    24    1
    38    34    30    1
@<TRIPOS>MOLECULE
*****
 34 38 0 0 0
SMALL
GASTEIGER

@<TRIPOS>ATOM
      1 C         140.5950  138.4291  158.5351 C.ar    1  UNL1        0.0541
      2 C         139.7488  137.7161  157.5224 C.ar    1  UNL1        0.0180
      3 C         140.3900  137.0738  156.3280 C.ar    1  UNL1        0.0382
      4 C         141.8773  137.1447  156.1464 C.ar    1  UNL1        0.1385
      5 C         142.7234  137.8578  157.1591 C.ar    1  UNL1        0.0382
      6 C         142.0823  138.5000  158.3534 C.ar    1  UNL1        0.0180
      7 O         136.9079  141.9752  163.1265 O.2     1  UNL1       -0.2699
      8 C         138.0306  140.9980  163.3126 C.2     1  UNL1        0.2494
      9 N         138.6717  140.3558  162.1183 N.am    1  UNL1       -0.2660
     10 C         139.7944  139.3786  162.3044 C.3     1  UNL1        0.1160
     11 C         140.4355  138.7364  161.1100 C.3     1  UNL1        0.1197
     12 N         139.9539  139.0714  159.7295 N.am    1  UNL1       -0.2555
     13 C         138.8312  140.0485  159.5433 C.2     1  UNL1        0.2497
     14 O         138.3496  140.3835  158.1629 O.2     1  UNL1       -0.2727
     15 C         138.1901  140.6907  160.7377 C.3     1  UNL1        0.1799
     16 C         138.5122  140.6630  164.6932 C.ar    1  UNL1        0.0537
     17 C         138.0017  139.4359  165.3885 C.ar    1  UNL1        0.0068
     18 C         138.4833  139.1010  166.7690 C.ar    1  UNL1        0.0298
     19 C         139.4755  139.9933  167.4542 C.ar    1  UNL1        0.1401
     20 F         139.9571  139.6583  168.8348 F       1  UNL1       -0.2042
     21 C         139.9860  141.2204  166.7590 C.ar    1  UNL1        0.0298
     22 C         139.5043  141.5553  165.3785 C.ar    1  UNL1        0.0068
     23 O         142.5183  136.5025  154.9520 O.3     1  UNL1       -0.4791
     24 C         142.9130  135.0561  154.9997 C.3     1  UNL1        0.1687
     25 C         143.8026  134.5573  156.0995 C.3     1  UNL1        0.0609
     26 C         144.1972  133.1109  156.1471 C.3     1  UNL1        0.0758
     27 N         143.7023  132.1634  155.0949 N.3     1  UNL1       -0.2737
     28 C         142.8126  132.6622  153.9950 C.3     1  UNL1        0.0758
     29 C         142.4180  134.1086  153.9474 C.3     1  UNL1        0.0609
     30 C         144.0969  130.7170  155.1425 C.3     1  UNL1        0.0575
     31 C         144.1351  129.8534  156.3685 C.3     1  UNL1        0.0160
     32 C         144.5844  128.4829  155.9561 C.3     1  UNL1        0.0014
     33 C         144.8240  128.4995  154.4755 C.3     1  UNL1        0.0014
     34 C         144.5227  129.8803  153.9727 C.3     1  UNL1        0.0160
@<TRIPOS>BOND
     1     7     8    2
     2     8    16    1
     3    16    17   ar
     4    17    18   ar
     5    18    19   ar
     6    19    20    1
     7    19    21   ar
     8    21    22   ar
     9     8     9   am
    10     9    10    1
    11    10    11    1
    12    11    12    1
    13    12     1    1
    14     1     2   ar
    15     2     3   ar
    16     3     4   ar
    17     4    23    1
    18    23    24    1
    19    24    25    1
    20    25    26    1
    21    26    27    1
    22    27    30    1
    23    30    31    1
    24    31    32    1
    25    32    33    1
    26    33    34    1
    27    27    28    1
    28    28    29    1
    29     4     5   ar
    30     5     6   ar
    31    12    13   am
    32    13    14    2
    33    13    15    1
    34    22    16   ar
    35    15     9    1
    36     6     1   ar
    37    29    24    1
    38    34    30    1
@<TRIPOS>MOLECULE
*****
 34 38 0 0 0
SMALL
GASTEIGER

@<TRIPOS>ATOM
      1 C         142.5674  141.1933  161.5448 C.ar    1  UNL1        0.0541
      2 C         143.2010  142.4620  161.0561 C.ar    1  UNL1        0.0180
      3 C         143.2311  142.7681  159.5879 C.ar    1  UNL1        0.0382
      4 C         142.6278  141.8054  158.6085 C.ar    1  UNL1        0.1385
      5 C         141.9943  140.5367  159.0973 C.ar    1  UNL1        0.0382
      6 C         141.9641  140.2306  160.5654 C.ar    1  UNL1        0.0180
      7 O         143.2423  138.8192  167.9603 O.2     1  UNL1       -0.2699
      8 C         142.4465  139.9690  167.4173 C.2     1  UNL1        0.2494
      9 N         142.4767  140.2751  165.9492 N.am    1  UNL1       -0.2660
     10 C         141.6809  141.4248  165.4062 C.3     1  UNL1        0.1160
     11 C         141.7112  141.7309  163.9381 C.3     1  UNL1        0.1197
     12 N         142.5372  140.8872  163.0129 N.am    1  UNL1       -0.2555
     13 C         143.3330  139.7375  163.5559 C.2     1  UNL1        0.2497
     14 O         144.1590  138.8938  162.6308 O.2     1  UNL1       -0.2727
     15 C         143.3028  139.4314  165.0240 C.3     1  UNL1        0.1799
     16 C         141.6205  140.8127  168.3425 C.ar    1  UNL1        0.0537
     17 C         140.2866  140.3184  168.8183 C.ar    1  UNL1        0.0068
     18 C         139.4606  141.1621  169.7434 C.ar    1  UNL1        0.0298
     19 C         139.9686  142.5000  170.1928 C.ar    1  UNL1        0.1401
     20 F         139.1425  143.3437  171.1181 F       1  UNL1       -0.2042
     21 C         141.3025  142.9942  169.7171 C.ar    1  UNL1        0.0298
     22 C         142.1284  142.1506  168.7919 C.ar    1  UNL1        0.0068
     23 O         142.6580  142.1115  157.1405 O.3     1  UNL1       -0.4791
     24 C         143.9717  142.2806  156.4365 C.3     1  UNL1        0.1687
     25 C         145.2101  141.6464  156.9969 C.3     1  UNL1        0.0609
     26 C         146.5238  141.8155  156.2929 C.3     1  UNL1        0.0758
     27 N         146.5991  142.6189  155.0284 N.3     1  UNL1       -0.2737
     28 C         145.3607  143.2532  154.4679 C.3     1  UNL1        0.0758
     29 C         144.0470  143.0840  155.1719 C.3     1  UNL1        0.0609
     30 C         147.9128  142.7880  154.3244 C.3     1  UNL1        0.0575
     31 C         149.1638  142.0048  154.5922 C.3     1  UNL1        0.0160
     32 C         150.2303  142.5028  153.6623 C.3     1  UNL1        0.0014
     33 C         149.6384  143.5937  152.8199 C.3     1  UNL1        0.0014
     34 C         148.2061  143.7699  153.2291 C.3     1  UNL1        0.0160
@<TRIPOS>BOND
     1     7     8    2
     2     8    16    1
     3    16    17   ar
     4    17    18   ar
     5    18    19   ar
     6    19    20    1
     7    19    21   ar
     8    21    22   ar
     9     8     9   am
    10     9    10    1
    11    10    11    1
    12    11    12    1
    13    12     1    1
    14     1     2   ar
    15     2     3   ar
    16     3     4   ar
    17     4    23    1
    18    23    24    1
    19    24    25    1
    20    25    26    1
    21    26    27    1
    22    27    30    1
    23    30    31    1
    24    31    32    1
    25    32    33    1
    26    33    34    1
    27    27    28    1
    28    28    29    1
    29     4     5   ar
    30     5     6   ar
    31    12    13   am
    32    13    14    2
    33    13    15    1
    34    22    16   ar
    35    15     9    1
    36     6     1   ar
    37    29    24    1
    38    34    30    1
@<TRIPOS>MOLECULE
*****
 34 38 0 0 0
SMALL
GASTEIGER

@<TRIPOS>ATOM
      1 C         140.4120  140.1147  161.9107 C.ar    1  UNL1        0.0541
      2 C         141.0920  138.9490  161.2560 C.ar    1  UNL1        0.0180
      3 C         141.2215  138.8984  159.7624 C.ar    1  UNL1        0.0382
      4 C         140.6711  140.0135  158.9236 C.ar    1  UNL1        0.1385
      5 C         139.9912  141.1792  159.5784 C.ar    1  UNL1        0.0382
      6 C         139.8616  141.2299  161.0719 C.ar    1  UNL1        0.0180
      7 O         138.8511  139.4893  168.5757 O.2     1  UNL1       -0.2699
      8 C         139.8937  140.3173  167.8848 C.2     1  UNL1        0.2494
      9 N         140.0233  140.2667  166.3913 N.am    1  UNL1       -0.2660
     10 C         141.0660  141.0947  165.7004 C.3     1  UNL1        0.1160
     11 C         141.1955  141.0440  164.2068 C.3     1  UNL1        0.1197
     12 N         140.2824  140.1654  163.4042 N.am    1  UNL1       -0.2555
     13 C         139.2398  139.3374  164.0951 C.2     1  UNL1        0.2497
     14 O         138.3267  138.4587  163.2925 O.2     1  UNL1       -0.2727
     15 C         139.1102  139.3880  165.5886 C.3     1  UNL1        0.1799
     16 C         140.8068  141.1960  168.6875 C.ar    1  UNL1        0.0537
     17 C         140.3644  142.5730  169.0849 C.ar    1  UNL1        0.0068
     18 C         141.2775  143.4516  169.8876 C.ar    1  UNL1        0.0298
     19 C         142.6330  142.9532  170.2929 C.ar    1  UNL1        0.1401
     20 F         143.5461  143.8318  171.0956 F       1  UNL1       -0.2042
     21 C         143.0754  141.5761  169.8954 C.ar    1  UNL1        0.0298
     22 C         142.1623  140.6975  169.0928 C.ar    1  UNL1        0.0068
     23 O         140.8007  139.9628  157.4301 O.3     1  UNL1       -0.4791
     24 C         141.0462  138.6525  156.7426 C.3     1  UNL1        0.1687
     25 C         142.4504  138.1834  156.5017 C.3     1  UNL1        0.0609
     26 C         142.6958  136.8730  155.8141 C.3     1  UNL1        0.0758
     27 N         141.5371  136.0318  155.3675 N.3     1  UNL1       -0.2737
     28 C         140.1328  136.5008  155.6084 C.3     1  UNL1        0.0758
     29 C         139.8873  137.8112  156.2960 C.3     1  UNL1        0.0609
     30 C         141.7825  134.7214  154.6800 C.3     1  UNL1        0.0575
     31 C         141.6620  134.4622  153.2074 C.3     1  UNL1        0.0160
     32 C         141.9966  133.0207  152.9617 C.3     1  UNL1        0.0014
     33 C         142.3239  132.3891  154.2822 C.3     1  UNL1        0.0014
     34 C         142.1916  133.4402  155.3442 C.3     1  UNL1        0.0160
@<TRIPOS>BOND
     1     7     8    2
     2     8    16    1
     3    16    17   ar
     4    17    18   ar
     5    18    19   ar
     6    19    20    1
     7    19    21   ar
     8    21    22   ar
     9     8     9   am
    10     9    10    1
    11    10    11    1
    12    11    12    1
    13    12     1    1
    14     1     2   ar
    15     2     3   ar
    16     3     4   ar
    17     4    23    1
    18    23    24    1
    19    24    25    1
    20    25    26    1
    21    26    27    1
    22    27    30    1
    23    30    31    1
    24    31    32    1
    25    32    33    1
    26    33    34    1
    27    27    28    1
    28    28    29    1
    29     4     5   ar
    30     5     6   ar
    31    12    13   am
    32    13    14    2
    33    13    15    1
    34    22    16   ar
    35    15     9    1
    36     6     1   ar
    37    29    24    1
    38    34    30    1
@<TRIPOS>MOLECULE
*****
 34 38 0 0 0
SMALL
GASTEIGER

@<TRIPOS>ATOM
      1 C         140.6437  140.0470  160.4779 C.ar    1  UNL1        0.0541
      2 C         139.6392  139.0175  160.0522 C.ar    1  UNL1        0.0180
      3 C         139.7210  138.4114  158.6825 C.ar    1  UNL1        0.0382
      4 C         140.8073  138.8346  157.7387 C.ar    1  UNL1        0.1385
      5 C         141.8118  139.8641  158.1644 C.ar    1  UNL1        0.0382
      6 C         141.7300  140.4702  159.5340 C.ar    1  UNL1        0.0180
      7 O         139.5846  143.7646  166.1618 O.2     1  UNL1       -0.2699
      8 C         140.3167  142.4716  165.9564 C.2     1  UNL1        0.2494
      9 N         140.3985  141.8655  164.5868 N.am    1  UNL1       -0.2660
     10 C         141.1306  140.5725  164.3814 C.3     1  UNL1        0.1160
     11 C         141.2123  139.9663  163.0117 C.3     1  UNL1        0.1197
     12 N         140.5620  140.6531  161.8475 N.am    1  UNL1       -0.2555
     13 C         139.8299  141.9461  162.0530 C.2     1  UNL1        0.2497
     14 O         139.1795  142.6329  160.8888 O.2     1  UNL1       -0.2727
     15 C         139.7481  142.5523  163.4226 C.3     1  UNL1        0.1799
     16 C         140.9671  141.7848  167.1206 C.ar    1  UNL1        0.0537
     17 C         140.2271  140.7172  167.8705 C.ar    1  UNL1        0.0068
     18 C         140.8775  140.0304  169.0347 C.ar    1  UNL1        0.0298
     19 C         142.2679  140.4113  169.4490 C.ar    1  UNL1        0.1401
     20 F         142.9183  139.7245  170.6132 F       1  UNL1       -0.2042
     21 C         143.0079  141.4790  168.6991 C.ar    1  UNL1        0.0298
     22 C         142.3575  142.1657  167.5349 C.ar    1  UNL1        0.0068
     23 O         140.8890  138.2285  156.3691 O.3     1  UNL1       -0.4791
     24 C         141.5378  136.8894  156.1790 C.3     1  UNL1        0.1687
     25 C         140.9209  135.8815  155.2552 C.3     1  UNL1        0.0609
     26 C         141.5696  134.5424  155.0652 C.3     1  UNL1        0.0758
     27 N         142.8352  134.2113  155.7990 N.3     1  UNL1       -0.2737
     28 C         143.4522  135.2193  156.7228 C.3     1  UNL1        0.0758
     29 C         142.8035  136.5583  156.9129 C.3     1  UNL1        0.0609
     30 C         143.4839  132.8723  155.6089 C.3     1  UNL1        0.0575
     31 C         144.5611  132.2840  156.4714 C.3     1  UNL1        0.0160
     32 C         144.9123  130.9345  155.9185 C.3     1  UNL1        0.0014
     33 C         144.0522  130.6888  154.7144 C.3     1  UNL1        0.0014
     34 C         143.1695  131.8864  154.5231 C.3     1  UNL1        0.0160
@<TRIPOS>BOND
     1     7     8    2
     2     8    16    1
     3    16    17   ar
     4    17    18   ar
     5    18    19   ar
     6    19    20    1
     7    19    21   ar
     8    21    22   ar
     9     8     9   am
    10     9    10    1
    11    10    11    1
    12    11    12    1
    13    12     1    1
    14     1     2   ar
    15     2     3   ar
    16     3     4   ar
    17     4    23    1
    18    23    24    1
    19    24    25    1
    20    25    26    1
    21    26    27    1
    22    27    30    1
    23    30    31    1
    24    31    32    1
    25    32    33    1
    26    33    34    1
    27    27    28    1
    28    28    29    1
    29     4     5   ar
    30     5     6   ar
    31    12    13   am
    32    13    14    2
    33    13    15    1
    34    22    16   ar
    35    15     9    1
    36     6     1   ar
    37    29    24    1
    38    34    30    1
@<TRIPOS>MOLECULE
*****
 34 38 0 0 0
SMALL
GASTEIGER

@<TRIPOS>ATOM
      1 C         142.9602  141.2097  161.8244 C.ar    1  UNL1        0.0541
      2 C         144.1029  142.0434  161.3252 C.ar    1  UNL1        0.0180
      3 C         144.2187  142.3588  159.8633 C.ar    1  UNL1        0.0382
      4 C         143.1918  141.8406  158.9006 C.ar    1  UNL1        0.1385
      5 C         142.0491  141.0069  159.3997 C.ar    1  UNL1        0.0382
      6 C         141.9333  140.6914  160.8616 C.ar    1  UNL1        0.0180
      7 O         143.2126  138.7590  168.2415 O.2     1  UNL1       -0.2699
      8 C         142.4970  139.9478  167.6718 C.2     1  UNL1        0.2494
      9 N         142.6128  140.2633  166.2100 N.am    1  UNL1       -0.2660
     10 C         141.8971  141.4521  165.6402 C.3     1  UNL1        0.1160
     11 C         142.0129  141.7675  164.1783 C.3     1  UNL1        0.1197
     12 N         142.8444  140.8942  163.2862 N.am    1  UNL1       -0.2555
     13 C         143.5601  139.7054  163.8559 C.2     1  UNL1        0.2497
     14 O         144.3916  138.8321  162.9638 O.2     1  UNL1       -0.2727
     15 C         143.4443  139.3899  165.3178 C.3     1  UNL1        0.1799
     16 C         141.6655  140.8211  168.5640 C.ar    1  UNL1        0.0537
     17 C         140.2790  140.3968  168.9482 C.ar    1  UNL1        0.0068
     18 C         139.4476  141.2701  169.8404 C.ar    1  UNL1        0.0298
     19 C         140.0026  142.5678  170.3483 C.ar    1  UNL1        0.1401
     20 F         139.1711  143.4411  171.2405 F       1  UNL1       -0.2042
     21 C         141.3890  142.9921  169.9641 C.ar    1  UNL1        0.0298
     22 C         142.2205  142.1188  169.0719 C.ar    1  UNL1        0.0068
     23 O         143.3076  142.1561  157.4388 O.3     1  UNL1       -0.4791
     24 C         142.5916  143.3446  156.8690 C.3     1  UNL1        0.1687
     25 C         142.0026  143.2758  155.4912 C.3     1  UNL1        0.0609
     26 C         141.2865  144.4643  154.9214 C.3     1  UNL1        0.0758
     27 N         141.1595  145.7217  155.7293 N.3     1  UNL1       -0.2737
     28 C         141.7485  145.7906  157.1072 C.3     1  UNL1        0.0758
     29 C         142.4645  144.6020  157.6770 C.3     1  UNL1        0.0609
     30 C         140.4434  146.9102  155.1595 C.3     1  UNL1        0.0575
     31 C         139.3542  147.6903  155.8343 C.3     1  UNL1        0.0160
     32 C         138.9285  148.7895  154.9067 C.3     1  UNL1        0.0014
     33 C         139.7546  148.6889  153.6587 C.3     1  UNL1        0.0014
     34 C         140.6908  147.5274  153.8150 C.3     1  UNL1        0.0160
@<TRIPOS>BOND
     1     7     8    2
     2     8    16    1
     3    16    17   ar
     4    17    18   ar
     5    18    19   ar
     6    19    20    1
     7    19    21   ar
     8    21    22   ar
     9     8     9   am
    10     9    10    1
    11    10    11    1
    12    11    12    1
    13    12     1    1
    14     1     2   ar
    15     2     3   ar
    16     3     4   ar
    17     4    23    1
    18    23    24    1
    19    24    25    1
    20    25    26    1
    21    26    27    1
    22    27    30    1
    23    30    31    1
    24    31    32    1
    25    32    33    1
    26    33    34    1
    27    27    28    1
    28    28    29    1
    29     4     5   ar
    30     5     6   ar
    31    12    13   am
    32    13    14    2
    33    13    15    1
    34    22    16   ar
    35    15     9    1
    36     6     1   ar
    37    29    24    1
    38    34    30    1
@<TRIPOS>MOLECULE
*****
 34 38 0 0 0
SMALL
GASTEIGER

@<TRIPOS>ATOM
      1 C         142.7646  140.6982  159.5079 C.ar    1  UNL1        0.0541
      2 C         144.0833  141.0833  160.1102 C.ar    1  UNL1        0.0180
      3 C         144.1327  142.0693  161.2396 C.ar    1  UNL1        0.0382
      4 C         142.8634  142.6702  161.7666 C.ar    1  UNL1        0.1385
      5 C         141.5447  142.2851  161.1644 C.ar    1  UNL1        0.0382
      6 C         141.4953  141.2992  160.0350 C.ar    1  UNL1        0.0180
      7 O         142.5190  137.2403  153.5723 O.2     1  UNL1       -0.2699
      8 C         142.5667  136.7544  154.9906 C.2     1  UNL1        0.2494
      9 N         142.6162  137.7403  156.1199 N.am    1  UNL1       -0.2660
     10 C         142.6640  137.2544  157.5382 C.3     1  UNL1        0.1160
     11 C         142.7134  138.2404  158.6676 C.3     1  UNL1        0.1197
     12 N         142.7151  139.7123  158.3786 N.am    1  UNL1       -0.2555
     13 C         142.6673  140.1982  156.9603 C.2     1  UNL1        0.2497
     14 O         142.6690  141.6701  156.6713 O.2     1  UNL1       -0.2727
     15 C         142.6179  139.2123  155.8309 C.3     1  UNL1        0.1799
     16 C         142.5651  135.2824  155.2795 C.ar    1  UNL1        0.0537
     17 C         141.3030  134.4880  155.1186 C.ar    1  UNL1        0.0068
     18 C         141.3014  133.0161  155.4075 C.ar    1  UNL1        0.0298
     19 C         142.5618  132.3387  155.8574 C.ar    1  UNL1        0.1401
     20 F         142.5601  130.8667  156.1463 F       1  UNL1       -0.2042
     21 C         143.8239  133.1331  156.0183 C.ar    1  UNL1        0.0298
     22 C         143.8255  134.6050  155.7294 C.ar    1  UNL1        0.0068
     23 O         142.9129  143.6561  162.8960 O.3     1  UNL1       -0.4791
     24 C         142.3124  143.3050  164.2249 C.3     1  UNL1        0.1687
     25 C         140.8982  143.6963  164.5358 C.3     1  UNL1        0.0609
     26 C         140.2977  143.3452  165.8648 C.3     1  UNL1        0.0758
     27 N         141.1115  142.6028  166.8829 N.3     1  UNL1       -0.2737
     28 C         142.5258  142.2115  166.5720 C.3     1  UNL1        0.0758
     29 C         143.1263  142.5626  165.2430 C.3     1  UNL1        0.0609
     30 C         140.5110  142.2518  168.2118 C.3     1  UNL1        0.0575
     31 C         140.3822  143.1696  169.3913 C.3     1  UNL1        0.0160
     32 C         139.7255  142.4063  170.5031 C.3     1  UNL1        0.0014
     33 C         139.4484  141.0167  170.0108 C.3     1  UNL1        0.0014
     34 C         139.9339  140.9212  168.5948 C.3     1  UNL1        0.0160
@<TRIPOS>BOND
     1     7     8    2
     2     8    16    1
     3    16    17   ar
     4    17    18   ar
     5    18    19   ar
     6    19    20    1
     7    19    21   ar
     8    21    22   ar
     9     8     9   am
    10     9    10    1
    11    10    11    1
    12    11    12    1
    13    12     1    1
    14     1     2   ar
    15     2     3   ar
    16     3     4   ar
    17     4    23    1
    18    23    24    1
    19    24    25    1
    20    25    26    1
    21    26    27    1
    22    27    30    1
    23    30    31    1
    24    31    32    1
    25    32    33    1
    26    33    34    1
    27    27    28    1
    28    28    29    1
    29     4     5   ar
    30     5     6   ar
    31    12    13   am
    32    13    14    2
    33    13    15    1
    34    22    16   ar
    35    15     9    1
    36     6     1   ar
    37    29    24    1
    38    34    30    1
