@<TRIPOS>MOLECULE
*****
 27 30 0 0 0
SMALL
GASTEIGER

@<TRIPOS>ATOM
      1 C         141.2750  138.7370  158.0725 C.3     1  UNL1        0.1355
      2 C         141.7801  137.4369  157.5205 C.3     1  UNL1        0.0700
      3 C         143.0753  137.7056  156.8132 C.3     1  UNL1        0.1834
      4 C         143.3707  139.1717  156.9280 C.3     1  UNL1        0.1130
      5 N         142.2581  139.8091  157.7063 N.3     1  UNL1       -0.2882
      6 H         141.7992  140.5192  157.1357 H       1  UNL1        0.1237
      7 O         138.7462  139.3281  158.1484 O.2     1  UNL1       -0.2734
      8 C         140.0092  138.9308  158.8535 C.2     1  UNL1        0.2401
      9 N         140.0062  138.7275  160.3396 N.am    1  UNL1       -0.2770
     10 C         141.3204  138.3318  160.9449 C.3     1  UNL1        0.0949
     11 C         141.6425  138.0575  162.3841 C.3     1  UNL1        0.0388
     12 C         140.7299  138.1113  163.5733 C.3     1  UNL1        0.0739
     13 N         139.2699  138.4525  163.6172 N.3     1  UNL1       -0.2725
     14 C         138.3618  138.8243  162.4826 C.3     1  UNL1        0.0938
     15 C         138.6896  138.9466  161.0239 C.3     1  UNL1        0.1107
     16 C         138.6338  138.4173  164.9751 C.3     1  UNL1        0.0576
     17 C         138.1390  139.4522  165.9418 C.3     1  UNL1        0.0160
     18 C         137.7342  138.3676  166.8956 C.3     1  UNL1        0.0028
     19 C         138.2290  137.3327  165.9291 C.3     1  UNL1        0.0160
     20 O         143.9258  136.6869  156.1138 O.3     1  UNL1       -0.4777
     21 C         143.4459  135.2718  155.9828 C.ar    1  UNL1        0.1385
     22 C         143.6293  134.3095  157.1188 C.ar    1  UNL1        0.0378
     23 C         143.1494  132.8944  156.9878 C.ar    1  UNL1        0.0145
     24 C         142.4863  132.4415  155.7209 C.ar    1  UNL1        0.0579
     25 CL        142.0064  131.0264  155.5899 Cl      1  UNL1       -0.0822
     26 C         142.3029  133.4038  154.5850 C.ar    1  UNL1        0.0145
     27 C         142.7828  134.8190  154.7160 C.ar    1  UNL1        0.0378
@<TRIPOS>BOND
     1     7     8    2
     2     1     8    1
     3     1     2    1
     4     2     3    1
     5     3    20    1
     6    20    21    1
     7    21    22   ar
     8    22    23   ar
     9    23    24   ar
    10    24    25    1
    11    24    26   ar
    12    26    27   ar
    13     3     4    1
    14     4     5    1
    15     8     9   am
    16     9    10    1
    17    10    11    1
    18    11    12    1
    19    12    13    1
    20    13    16    1
    21    16    17    1
    22    17    18    1
    23    18    19    1
    24    13    14    1
    25    14    15    1
    26     5     1    1
    27    15     9    1
    28    27    21   ar
    29    19    16    1
    30     5     6    1
@<TRIPOS>MOLECULE
*****
 27 30 0 0 0
SMALL
GASTEIGER

@<TRIPOS>ATOM
      1 C         144.3891  142.0066  161.9255 C.3     1  UNL1        0.1355
      2 C         143.3784  142.4400  162.9457 C.3     1  UNL1        0.0700
      3 C         144.0774  142.5635  164.2672 C.3     1  UNL1        0.1834
      4 C         145.5199  142.2063  164.0637 C.3     1  UNL1        0.1130
      5 N         145.7125  141.8622  162.6165 N.3     1  UNL1       -0.2882
      6 H         146.0450  140.9017  162.5304 H       1  UNL1        0.1237
      7 O         144.2227  142.8903  159.4880 O.2     1  UNL1       -0.2734
      8 C         144.1229  141.7608  160.4699 C.2     1  UNL1        0.2401
      9 N         143.7569  140.3854  159.9962 N.am    1  UNL1       -0.2770
     10 C         143.6846  139.3290  161.0587 C.3     1  UNL1        0.0949
     11 C         143.3491  137.8745  160.9100 C.3     1  UNL1        0.0388
     12 C         143.0031  137.1174  159.6624 C.3     1  UNL1        0.0739
     13 N         142.9070  137.6275  158.2550 N.3     1  UNL1       -0.2725
     14 C         143.1333  139.0210  157.7479 C.3     1  UNL1        0.0938
     15 C         143.5115  140.2483  158.5229 C.3     1  UNL1        0.1107
     16 C         142.5356  136.6098  157.2177 C.3     1  UNL1        0.0576
     17 C         143.0952  135.2887  156.7797 C.3     1  UNL1        0.0160
     18 C         142.0103  135.1703  155.7507 C.3     1  UNL1        0.0028
     19 C         141.4507  136.4913  156.1886 C.3     1  UNL1        0.0160
     20 O         143.4447  142.9723  165.5644 O.3     1  UNL1       -0.4777
     21 C         143.1828  141.9466  166.6271 C.ar    1  UNL1        0.1385
     22 C         143.2186  142.3401  168.0742 C.ar    1  UNL1        0.0378
     23 C         142.9567  141.3145  169.1369 C.ar    1  UNL1        0.0145
     24 C         142.6590  139.8954  168.7527 C.ar    1  UNL1        0.0579
     25 CL        142.3970  138.8698  169.8155 Cl      1  UNL1       -0.0822
     26 C         142.6232  139.5020  167.3057 C.ar    1  UNL1        0.0145
     27 C         142.8851  140.5277  166.2429 C.ar    1  UNL1        0.0378
@<TRIPOS>BOND
     1     7     8    2
     2     1     8    1
     3     1     2    1
     4     2     3    1
     5     3    20    1
     6    20    21    1
     7    21    22   ar
     8    22    23   ar
     9    23    24   ar
    10    24    25    1
    11    24    26   ar
    12    26    27   ar
    13     3     4    1
    14     4     5    1
    15     8     9   am
    16     9    10    1
    17    10    11    1
    18    11    12    1
    19    12    13    1
    20    13    16    1
    21    16    17    1
    22    17    18    1
    23    18    19    1
    24    13    14    1
    25    14    15    1
    26     5     1    1
    27    15     9    1
    28    27    21   ar
    29    19    16    1
    30     5     6    1
@<TRIPOS>MOLECULE
*****
 27 30 0 0 0
SMALL
GASTEIGER

@<TRIPOS>ATOM
      1 C         142.9659  138.0034  159.2122 C.3     1  UNL1        0.1355
      2 C         142.6099  136.8951  158.2662 C.3     1  UNL1        0.0700
      3 C         142.6688  137.4405  156.8701 C.3     1  UNL1        0.1834
      4 C         143.0612  138.8859  156.9533 C.3     1  UNL1        0.1130
      5 N         143.2448  139.2337  158.4008 N.3     1  UNL1       -0.2882
      6 H         142.5962  139.9759  158.6633 H       1  UNL1        0.1237
      7 O         144.3493  137.6710  161.3860 O.2     1  UNL1       -0.2734
      8 C         143.0314  137.8995  160.7071 C.2     1  UNL1        0.2401
      9 N         141.7790  138.0242  161.5233 N.am    1  UNL1       -0.2770
     10 C         140.5160  138.2513  160.7464 C.3     1  UNL1        0.0949
     11 C         139.1172  138.4156  161.2628 C.3     1  UNL1        0.0388
     12 C         138.6361  138.3934  162.6833 C.3     1  UNL1        0.0739
     13 N         139.4348  138.2015  163.9384 N.3     1  UNL1       -0.2725
     14 C         140.9119  137.9843  164.0830 C.3     1  UNL1        0.0938
     15 C         141.9552  137.9054  163.0080 C.3     1  UNL1        0.1107
     16 C         138.6530  138.2305  165.2182 C.3     1  UNL1        0.0576
     17 C         138.1772  139.3087  166.1463 C.3     1  UNL1        0.0160
     18 C         137.5472  138.2717  167.0281 C.3     1  UNL1        0.0028
     19 C         138.0230  137.1935  166.1001 C.3     1  UNL1        0.0160
     20 O         142.3852  136.6749  155.6117 O.3     1  UNL1       -0.4777
     21 C         142.4607  135.1768  155.6121 C.ar    1  UNL1        0.1385
     22 C         143.7258  134.4897  156.0332 C.ar    1  UNL1        0.0378
     23 C         143.8014  132.9917  156.0337 C.ar    1  UNL1        0.0145
     24 C         142.6118  132.1806  155.6129 C.ar    1  UNL1        0.0579
     25 CL        142.6873  130.6825  155.6133 Cl      1  UNL1       -0.0822
     26 C         141.3466  132.8677  155.1918 C.ar    1  UNL1        0.0145
     27 C         141.2712  134.3658  155.1914 C.ar    1  UNL1        0.0378
@<TRIPOS>BOND
     1     7     8    2
     2     1     8    1
     3     1     2    1
     4     2     3    1
     5     3    20    1
     6    20    21    1
     7    21    22   ar
     8    22    23   ar
     9    23    24   ar
    10    24    25    1
    11    24    26   ar
    12    26    27   ar
    13     3     4    1
    14     4     5    1
    15     8     9   am
    16     9    10    1
    17    10    11    1
    18    11    12    1
    19    12    13    1
    20    13    16    1
    21    16    17    1
    22    17    18    1
    23    18    19    1
    24    13    14    1
    25    14    15    1
    26     5     1    1
    27    15     9    1
    28    27    21   ar
    29    19    16    1
    30     5     6    1
@<TRIPOS>MOLECULE
*****
 27 30 0 0 0
SMALL
GASTEIGER

@<TRIPOS>ATOM
      1 C         138.0983  140.9328  160.5962 C.3     1  UNL1        0.1355
      2 C         138.7940  142.1910  161.0240 C.3     1  UNL1        0.0700
      3 C         138.3398  142.5219  162.4148 C.3     1  UNL1        0.1834
      4 C         137.3634  141.4683  162.8465 C.3     1  UNL1        0.1130
      5 N         137.2142  140.4862  161.7226 N.3     1  UNL1       -0.2882
      6 H         136.2431  140.4612  161.4114 H       1  UNL1        0.1237
      7 O         137.1770  140.3426  158.2398 O.2     1  UNL1       -0.2734
      8 C         138.2586  140.2426  159.2742 C.2     1  UNL1        0.2401
      9 N         139.5006  139.4522  158.9865 N.am    1  UNL1       -0.2770
     10 C         140.5188  139.4163  160.0876 C.3     1  UNL1        0.0949
     11 C         141.8481  138.7215  160.1099 C.3     1  UNL1        0.0388
     12 C         142.4874  137.8912  159.0369 C.3     1  UNL1        0.0739
     13 N         141.9556  137.5504  157.6763 N.3     1  UNL1       -0.2725
     14 C         140.6529  137.9559  157.0529 C.3     1  UNL1        0.0938
     15 C         139.5604  138.8023  157.6361 C.3     1  UNL1        0.1107
     16 C         142.8438  136.6905  156.8269 C.3     1  UNL1        0.0576
     17 C         143.1230  135.2195  156.7349 C.3     1  UNL1        0.0160
     18 C         144.1000  135.4743  155.6256 C.3     1  UNL1        0.0028
     19 C         143.8208  136.9453  155.7175 C.3     1  UNL1        0.0160
     20 O         138.7840  143.6998  163.2306 O.3     1  UNL1       -0.4777
     21 C         140.2068  143.7961  163.6958 C.ar    1  UNL1        0.1385
     22 C         140.7495  142.7862  164.6631 C.ar    1  UNL1        0.0378
     23 C         142.1722  142.8825  165.1283 C.ar    1  UNL1        0.0145
     24 C         143.0523  143.9886  164.6264 C.ar    1  UNL1        0.0579
     25 CL        144.4750  144.0850  165.0916 Cl      1  UNL1       -0.0822
     26 C         142.5095  144.9985  163.6591 C.ar    1  UNL1        0.0145
     27 C         141.0867  144.9022  163.1939 C.ar    1  UNL1        0.0378
@<TRIPOS>BOND
     1     7     8    2
     2     1     8    1
     3     1     2    1
     4     2     3    1
     5     3    20    1
     6    20    21    1
     7    21    22   ar
     8    22    23   ar
     9    23    24   ar
    10    24    25    1
    11    24    26   ar
    12    26    27   ar
    13     3     4    1
    14     4     5    1
    15     8     9   am
    16     9    10    1
    17    10    11    1
    18    11    12    1
    19    12    13    1
    20    13    16    1
    21    16    17    1
    22    17    18    1
    23    18    19    1
    24    13    14    1
    25    14    15    1
    26     5     1    1
    27    15     9    1
    28    27    21   ar
    29    19    16    1
    30     5     6    1
@<TRIPOS>MOLECULE
*****
 27 30 0 0 0
SMALL
GASTEIGER

@<TRIPOS>ATOM
      1 C         141.8623  137.9294  162.1304 C.3     1  UNL1        0.1355
      2 C         142.5409  138.8833  163.0683 C.3     1  UNL1        0.0700
      3 C         142.3206  138.3923  164.4685 C.3     1  UNL1        0.1834
      4 C         141.5059  137.1351  164.3959 C.3     1  UNL1        0.1130
      5 N         141.2226  136.8490  162.9510 N.3     1  UNL1       -0.2882
      6 H         140.2153  136.8428  162.7904 H       1  UNL1        0.1237
      7 O         142.9503  137.4680  159.8168 O.2     1  UNL1       -0.2734
      8 C         141.8292  138.0371  160.6347 C.2     1  UNL1        0.2401
      9 N         140.6749  138.7140  159.9568 N.am    1  UNL1       -0.2770
     10 C         139.6081  139.2478  160.8664 C.3     1  UNL1        0.0949
     11 C         138.3429  139.9670  160.5028 C.3     1  UNL1        0.0388
     12 C         137.8322  140.3301  159.1400 C.3     1  UNL1        0.0739
     13 N         138.4604  140.0638  157.8042 N.3     1  UNL1       -0.2725
     14 C         139.7545  139.3684  157.5012 C.3     1  UNL1        0.0938
     15 C         140.7400  138.7678  158.4593 C.3     1  UNL1        0.1107
     16 C         137.6930  140.5580  156.6139 C.3     1  UNL1        0.0576
     17 C         136.7230  141.6752  156.3665 C.3     1  UNL1        0.0160
     18 C         136.6076  141.2571  154.9306 C.3     1  UNL1        0.0028
     19 C         137.5776  140.1400  155.1779 C.3     1  UNL1        0.0160
     20 O         142.8264  139.0443  165.7212 O.3     1  UNL1       -0.4777
     21 C         141.8647  139.4358  166.8037 C.ar    1  UNL1        0.1385
     22 C         140.4397  139.7556  166.4614 C.ar    1  UNL1        0.0378
     23 C         139.4781  140.1472  167.5438 C.ar    1  UNL1        0.0145
     24 C         139.9413  140.2189  168.9687 C.ar    1  UNL1        0.0579
     25 CL        138.9796  140.6104  170.0512 Cl      1  UNL1       -0.0822
     26 C         141.3663  139.8991  169.3110 C.ar    1  UNL1        0.0145
     27 C         142.3279  139.5075  168.2285 C.ar    1  UNL1        0.0378
@<TRIPOS>BOND
     1     7     8    2
     2     1     8    1
     3     1     2    1
     4     2     3    1
     5     3    20    1
     6    20    21    1
     7    21    22   ar
     8    22    23   ar
     9    23    24   ar
    10    24    25    1
    11    24    26   ar
    12    26    27   ar
    13     3     4    1
    14     4     5    1
    15     8     9   am
    16     9    10    1
    17    10    11    1
    18    11    12    1
    19    12    13    1
    20    13    16    1
    21    16    17    1
    22    17    18    1
    23    18    19    1
    24    13    14    1
    25    14    15    1
    26     5     1    1
    27    15     9    1
    28    27    21   ar
    29    19    16    1
    30     5     6    1
@<TRIPOS>MOLECULE
*****
 27 30 0 0 0
SMALL
GASTEIGER

@<TRIPOS>ATOM
      1 C         140.9263  138.1411  162.0337 C.3     1  UNL1        0.1355
      2 C         140.6634  138.6836  160.6601 C.3     1  UNL1        0.0700
      3 C         141.8383  138.3396  159.7932 C.3     1  UNL1        0.1834
      4 C         142.8272  137.5847  160.6311 C.3     1  UNL1        0.1130
      5 N         142.2636  137.4620  162.0157 N.3     1  UNL1       -0.2882
      6 H         142.8888  137.9110  162.6849 H       1  UNL1        0.1237
      7 O         138.7553  137.4412  163.2773 O.2     1  UNL1       -0.2734
      8 C         140.0123  138.2575  163.2173 C.2     1  UNL1        0.2401
      9 N         140.3552  139.1901  164.3409 N.am    1  UNL1       -0.2770
     10 C         141.6334  139.9588  164.1815 C.3     1  UNL1        0.0949
     11 C         142.2468  140.9581  165.1172 C.3     1  UNL1        0.0388
     12 C         141.7334  141.4352  166.4433 C.3     1  UNL1        0.0739
     13 N         140.4800  141.0311  167.1614 N.3     1  UNL1       -0.2725
     14 C         139.4303  140.0500  166.7306 C.3     1  UNL1        0.0938
     15 C         139.3749  139.2307  165.4753 C.3     1  UNL1        0.1107
     16 C         140.2452  141.6961  168.4852 C.3     1  UNL1        0.0576
     17 C         140.5179  143.0582  169.0513 C.3     1  UNL1        0.0160
     18 C         139.9131  142.6365  170.3575 C.3     1  UNL1        0.0028
     19 C         139.6404  141.2744  169.7916 C.3     1  UNL1        0.0160
     20 O         141.9965  138.6893  158.3431 O.3     1  UNL1       -0.4777
     21 C         141.8125  137.6343  157.2928 C.ar    1  UNL1        0.1385
     22 C         142.9426  136.7077  156.9545 C.ar    1  UNL1        0.0378
     23 C         142.7588  135.6528  155.9043 C.ar    1  UNL1        0.0145
     24 C         141.4448  135.5242  155.1923 C.ar    1  UNL1        0.0579
     25 CL        141.2609  134.4692  154.1420 Cl      1  UNL1       -0.0822
     26 C         140.3147  136.4507  155.5306 C.ar    1  UNL1        0.0145
     27 C         140.4986  137.5057  156.5809 C.ar    1  UNL1        0.0378
@<TRIPOS>BOND
     1     7     8    2
     2     1     8    1
     3     1     2    1
     4     2     3    1
     5     3    20    1
     6    20    21    1
     7    21    22   ar
     8    22    23   ar
     9    23    24   ar
    10    24    25    1
    11    24    26   ar
    12    26    27   ar
    13     3     4    1
    14     4     5    1
    15     8     9   am
    16     9    10    1
    17    10    11    1
    18    11    12    1
    19    12    13    1
    20    13    16    1
    21    16    17    1
    22    17    18    1
    23    18    19    1
    24    13    14    1
    25    14    15    1
    26     5     1    1
    27    15     9    1
    28    27    21   ar
    29    19    16    1
    30     5     6    1
@<TRIPOS>MOLECULE
*****
 27 30 0 0 0
SMALL
GASTEIGER

@<TRIPOS>ATOM
      1 C         141.7188  144.2548  158.4675 C.3     1  UNL1        0.1355
      2 C         140.3464  144.4285  157.8873 C.3     1  UNL1        0.0700
      3 C         140.3745  145.6226  156.9799 C.3     1  UNL1        0.1834
      4 C         141.7641  146.1870  156.9994 C.3     1  UNL1        0.1130
      5 N         142.5949  145.3416  157.9188 N.3     1  UNL1       -0.2882
      6 H         142.9566  145.9132  158.6822 H       1  UNL1        0.1237
      7 O         142.7576  141.9157  158.9138 O.2     1  UNL1       -0.2734
      8 C         142.1407  143.1827  159.4278 C.2     1  UNL1        0.2401
      9 N         141.9458  143.3773  160.9023 N.am    1  UNL1       -0.2770
     10 C         141.3208  144.6787  161.3099 C.3     1  UNL1        0.0949
     11 C         140.9974  145.1691  162.6902 C.3     1  UNL1        0.0388
     12 C         141.2189  144.4793  164.0035 C.3     1  UNL1        0.0739
     13 N         141.8187  143.1288  164.2612 N.3     1  UNL1       -0.2725
     14 C         142.3450  142.1345  163.2691 C.3     1  UNL1        0.0938
     15 C         142.4016  142.2452  161.7742 C.3     1  UNL1        0.1107
     16 C         141.9033  142.7183  165.7014 C.3     1  UNL1        0.0576
     17 C         143.0047  142.2601  166.6109 C.3     1  UNL1        0.0160
     18 C         142.0230  142.1378  167.7383 C.3     1  UNL1        0.0028
     19 C         140.9215  142.5960  166.8290 C.3     1  UNL1        0.0160
     20 O         139.2163  146.1583  156.1915 O.3     1  UNL1       -0.4777
     21 C         139.0935  147.6332  155.9470 C.ar    1  UNL1        0.1385
     22 C         138.5413  148.5274  157.0172 C.ar    1  UNL1        0.0378
     23 C         138.4185  150.0022  156.7728 C.ar    1  UNL1        0.0145
     24 C         138.8479  150.5828  155.4581 C.ar    1  UNL1        0.0579
     25 CL        138.7251  152.0577  155.2136 Cl      1  UNL1       -0.0822
     26 C         139.4002  149.6886  154.3879 C.ar    1  UNL1        0.0145
     27 C         139.5229  148.2138  154.6324 C.ar    1  UNL1        0.0378
@<TRIPOS>BOND
     1     7     8    2
     2     1     8    1
     3     1     2    1
     4     2     3    1
     5     3    20    1
     6    20    21    1
     7    21    22   ar
     8    22    23   ar
     9    23    24   ar
    10    24    25    1
    11    24    26   ar
    12    26    27   ar
    13     3     4    1
    14     4     5    1
    15     8     9   am
    16     9    10    1
    17    10    11    1
    18    11    12    1
    19    12    13    1
    20    13    16    1
    21    16    17    1
    22    17    18    1
    23    18    19    1
    24    13    14    1
    25    14    15    1
    26     5     1    1
    27    15     9    1
    28    27    21   ar
    29    19    16    1
    30     5     6    1
@<TRIPOS>MOLECULE
*****
 27 30 0 0 0
SMALL
GASTEIGER

@<TRIPOS>ATOM
      1 C         140.8362  145.1625  159.6557 C.3     1  UNL1        0.1355
      2 C         139.8322  145.5254  158.6019 C.3     1  UNL1        0.0700
      3 C         140.5723  145.7640  157.3192 C.3     1  UNL1        0.1834
      4 C         142.0336  145.5487  157.5802 C.3     1  UNL1        0.1130
      5 N         142.1967  145.1770  159.0242 N.3     1  UNL1       -0.2882
      6 H         142.7888  145.8623  159.4934 H       1  UNL1        0.1237
      7 O         140.5345  145.9327  162.1186 O.2     1  UNL1       -0.2734
      8 C         140.5328  144.8417  161.0892 C.2     1  UNL1        0.2401
      9 N         140.2276  143.4297  161.4934 N.am    1  UNL1       -0.2770
     10 C         140.2522  142.4165  160.3875 C.3     1  UNL1        0.0949
     11 C         139.9934  140.9410  160.4651 C.3     1  UNL1        0.0388
     12 C         139.6463  140.1144  161.6675 C.3     1  UNL1        0.0739
     13 N         139.4721  140.5589  163.0895 N.3     1  UNL1       -0.2725
     14 C         139.6021  141.9401  163.6602 C.3     1  UNL1        0.0938
     15 C         139.9383  143.2177  162.9497 C.3     1  UNL1        0.1107
     16 C         139.1216  139.4798  164.0705 C.3     1  UNL1        0.0576
     17 C         138.3843  139.4317  165.3760 C.3     1  UNL1        0.0160
     18 C         138.6259  137.9535  165.4580 C.3     1  UNL1        0.0028
     19 C         139.3632  138.0015  164.1526 C.3     1  UNL1        0.0160
     20 O         139.9588  146.1502  156.0060 O.3     1  UNL1       -0.4777
     21 C         139.5839  147.5789  155.7446 C.ar    1  UNL1        0.1385
     22 C         138.7471  148.3286  156.7384 C.ar    1  UNL1        0.0378
     23 C         138.3723  149.7572  156.4771 C.ar    1  UNL1        0.0145
     24 C         138.8341  150.4363  155.2218 C.ar    1  UNL1        0.0579
     25 CL        138.4593  151.8649  154.9604 Cl      1  UNL1       -0.0822
     26 C         139.6710  149.6866  154.2280 C.ar    1  UNL1        0.0145
     27 C         140.0458  148.2579  154.4894 C.ar    1  UNL1        0.0378
@<TRIPOS>BOND
     1     7     8    2
     2     1     8    1
     3     1     2    1
     4     2     3    1
     5     3    20    1
     6    20    21    1
     7    21    22   ar
     8    22    23   ar
     9    23    24   ar
    10    24    25    1
    11    24    26   ar
    12    26    27   ar
    13     3     4    1
    14     4     5    1
    15     8     9   am
    16     9    10    1
    17    10    11    1
    18    11    12    1
    19    12    13    1
    20    13    16    1
    21    16    17    1
    22    17    18    1
    23    18    19    1
    24    13    14    1
    25    14    15    1
    26     5     1    1
    27    15     9    1
    28    27    21   ar
    29    19    16    1
    30     5     6    1
@<TRIPOS>MOLECULE
*****
 27 30 0 0 0
SMALL
GASTEIGER

@<TRIPOS>ATOM
      1 C         138.8165  140.1905  165.1782 C.3     1  UNL1        0.1355
      2 C         139.6102  140.4691  166.4202 C.3     1  UNL1        0.0700
      3 C         139.0269  139.6532  167.5357 C.3     1  UNL1        0.1834
      4 C         137.8730  138.8704  166.9830 C.3     1  UNL1        0.1130
      5 N         137.7429  139.2025  165.5260 N.3     1  UNL1       -0.2882
      6 H         136.8256  139.6098  165.3444 H       1  UNL1        0.1237
      7 O         138.4644  142.1305  163.4864 O.2     1  UNL1       -0.2734
      8 C         139.0548  140.7941  163.8258 C.2     1  UNL1        0.2401
      9 N         139.8835  140.0612  162.8128 N.am    1  UNL1       -0.2770
     10 C         140.4262  138.7339  163.2535 C.3     1  UNL1        0.0949
     11 C         141.2794  137.7701  162.4832 C.3     1  UNL1        0.0388
     12 C         141.8005  137.8954  161.0823 C.3     1  UNL1        0.0739
     13 N         141.5972  139.0155  160.1055 N.3     1  UNL1       -0.2725
     14 C         140.8226  140.2869  160.2884 C.3     1  UNL1        0.0938
     15 C         140.0599  140.7522  161.4933 C.3     1  UNL1        0.1107
     16 C         142.2556  138.8411  158.7691 C.3     1  UNL1        0.0576
     17 C         142.4722  137.6868  157.8359 C.3     1  UNL1        0.0160
     18 C         143.1868  138.5944  156.8790 C.3     1  UNL1        0.0028
     19 C         142.9703  139.7488  157.8121 C.3     1  UNL1        0.0160
     20 O         139.5126  139.6251  168.9546 O.3     1  UNL1       -0.4777
     21 C         140.5285  140.6259  169.4196 C.ar    1  UNL1        0.1385
     22 C         141.9622  140.2174  169.5857 C.ar    1  UNL1        0.0378
     23 C         142.9782  141.2181  170.0507 C.ar    1  UNL1        0.0145
     24 C         142.5605  142.6274  170.3496 C.ar    1  UNL1        0.0579
     25 CL        143.5764  143.6282  170.8146 Cl      1  UNL1       -0.0822
     26 C         141.1268  143.0359  170.1835 C.ar    1  UNL1        0.0145
     27 C         140.1108  142.0351  169.7185 C.ar    1  UNL1        0.0378
@<TRIPOS>BOND
     1     7     8    2
     2     1     8    1
     3     1     2    1
     4     2     3    1
     5     3    20    1
     6    20    21    1
     7    21    22   ar
     8    22    23   ar
     9    23    24   ar
    10    24    25    1
    11    24    26   ar
    12    26    27   ar
    13     3     4    1
    14     4     5    1
    15     8     9   am
    16     9    10    1
    17    10    11    1
    18    11    12    1
    19    12    13    1
    20    13    16    1
    21    16    17    1
    22    17    18    1
    23    18    19    1
    24    13    14    1
    25    14    15    1
    26     5     1    1
    27    15     9    1
    28    27    21   ar
    29    19    16    1
    30     5     6    1
