@<TRIPOS>MOLECULE
*****
 41 46 0 0 0
SMALL
GASTEIGER

@<TRIPOS>ATOM
      1 C         140.1960  141.5712  161.4461 C.3     1  UNL1        0.0605
      2 C         140.2529  143.0701  161.4367 C.3     1  UNL1        0.0460
      3 C         139.4633  143.5713  162.6094 C.3     1  UNL1        0.1247
      4 O         139.0104  144.8074  163.3284 O.3     1  UNL1       -0.3557
      5 C         138.1856  144.3823  164.5069 C.3     1  UNL1        0.1426
      6 C         138.1287  142.8834  164.5164 C.3     1  UNL1        0.0431
      7 C         138.9183  142.3822  163.3437 C.3     1  UNL1        0.0977
      8 C         139.3712  141.1461  162.6247 C.3     1  UNL1        0.0271
      9 C         138.3735  141.1931  164.0778 C.2     1  UNL1        0.2299
     10 O         137.3215  140.3350  163.4398 O.2     1  UNL1       -0.2747
     11 N         138.8806  140.8619  165.4502 N.am    1  UNL1       -0.2383
     12 C         138.3357  139.6728  166.1844 C.3     1  UNL1        0.3077
     13 O         138.8428  139.3417  167.5567 O.3     1  UNL1       -0.4553
     14 C         139.8947  140.1997  168.1948 C.ar    1  UNL1        0.1383
     15 C         140.4018  139.8686  169.5671 C.ar    1  UNL1        0.0366
     16 C         141.4538  140.7266  170.2052 C.ar    1  UNL1        0.0069
     17 C         141.9987  141.9158  169.4709 C.ar    1  UNL1        0.0714
     18 C         141.4916  142.2469  168.0987 C.ar    1  UNL1        0.0042
     19 C         140.4396  141.3888  167.4606 C.ar    1  UNL1        0.0318
     20 C         139.9325  141.7199  166.0883 C.3     1  UNL1        0.1265
     21 C         143.0506  142.7738  170.1090 C.3     1  UNL1        0.4186
     22 F         144.1026  143.6318  170.7471 F       1  UNL1       -0.1659
     23 F         144.0532  141.6710  169.9391 F       1  UNL1       -0.1659
     24 F         142.0481  143.8766  170.2789 F       1  UNL1       -0.1659
     25 C         142.1557  138.8311  158.4627 C.3     1  UNL1        0.0251
     26 C         140.6905  138.6970  158.7546 C.3     1  UNL1        0.0217
     27 C         140.0373  139.6104  159.7491 C.3     1  UNL1        0.0724
     28 N         140.8493  140.6578  160.4516 N.3     1  UNL1       -0.2738
     29 C         142.3144  140.7918  160.1597 C.3     1  UNL1        0.0724
     30 C         142.9677  139.8785  159.1652 C.3     1  UNL1        0.0217
     31 C         143.4636  135.5222  156.7046 C.ar    1  UNL1        0.0530
     32 C         144.1154  136.0909  155.4792 C.ar    1  UNL1        0.0045
     33 C         144.1140  137.5730  155.2482 C.ar    1  UNL1       -0.0002
     34 C         143.4608  138.4864  156.2427 C.ar    1  UNL1       -0.0043
     35 C         142.8090  137.9176  157.4682 C.ar    1  UNL1       -0.0223
     36 C         142.8104  136.4355  157.6991 C.ar    1  UNL1        0.0002
     37 C         144.6893  131.8857  157.7167 C.3     1  UNL1        0.1109
     38 N         144.6879  133.3679  157.4858 N.am    1  UNL1       -0.2992
     39 C         143.4650  134.0400  156.9355 C.2     1  UNL1        0.2459
     40 O         142.2436  133.2301  156.6161 O.2     1  UNL1       -0.2701
     41 H         145.4895  133.8995  157.6954 H       1  UNL1        0.1498
@<TRIPOS>BOND
     1    37    38    1
     2    38    39   am
     3    39    40    2
     4    39    31    1
     5    31    32   ar
     6    32    33   ar
     7    33    34   ar
     8    34    35   ar
     9    35    25    1
    10    25    26    1
    11    26    27    1
    12    27    28    1
    13     1    28    1
    14     1     2    1
    15     3     2    1
    16     3     4    1
    17     4     5    1
    18     5     6    1
    19     6     7    1
    20     7     9    1
    21     9    10    2
    22     9    11   am
    23    11    12    1
    24    12    13    1
    25    13    14    1
    26    14    15   ar
    27    15    16   ar
    28    16    17   ar
    29    17    21    1
    30    21    22    1
    31    21    23    1
    32    21    24    1
    33    17    18   ar
    34    18    19   ar
    35    19    20    1
    36     7     8    1
    37    28    29    1
    38    29    30    1
    39    35    36   ar
    40    36    31   ar
    41    30    25    1
    42     8     1    1
    43     7     3    1
    44    20    11    1
    45    19    14   ar
    46    38    41    1
@<TRIPOS>MOLECULE
*****
 41 46 0 0 0
SMALL
GASTEIGER

@<TRIPOS>ATOM
      1 C         141.0171  142.1487  159.6299 C.3     1  UNL1        0.0605
      2 C         139.8404  143.0660  159.4756 C.3     1  UNL1        0.0460
      3 C         139.9517  144.1416  160.5151 C.3     1  UNL1        0.1247
      4 O         139.2934  145.3734  161.0622 O.3     1  UNL1       -0.3557
      5 C         140.1319  145.8820  162.1971 C.3     1  UNL1        0.1426
      6 C         141.3086  144.9647  162.3515 C.3     1  UNL1        0.0431
      7 C         141.1973  143.8890  161.3120 C.3     1  UNL1        0.0977
      8 C         141.8557  142.6573  160.7649 C.3     1  UNL1        0.0271
      9 C         142.4427  143.6364  162.1088 C.2     1  UNL1        0.2299
     10 O         143.7415  144.2574  161.6874 O.2     1  UNL1       -0.2747
     11 N         142.3895  142.7628  163.3270 N.am    1  UNL1       -0.2383
     12 C         143.6349  142.5101  164.1238 C.3     1  UNL1        0.3077
     13 O         143.5816  141.6365  165.3419 O.3     1  UNL1       -0.4553
     14 C         142.2828  141.0155  165.7632 C.ar    1  UNL1        0.1383
     15 C         142.2296  140.1419  166.9815 C.ar    1  UNL1        0.0366
     16 C         140.9308  139.5209  167.4028 C.ar    1  UNL1        0.0069
     17 C         139.6853  139.7736  166.6059 C.ar    1  UNL1        0.0714
     18 C         139.7386  140.6472  165.3878 C.ar    1  UNL1        0.0042
     19 C         141.0374  141.2682  164.9664 C.ar    1  UNL1        0.0318
     20 C         141.0907  142.1418  163.7483 C.3     1  UNL1        0.1265
     21 C         138.3865  139.1526  167.0273 C.3     1  UNL1        0.4186
     22 F         137.0877  138.5316  167.4486 F       1  UNL1       -0.1659
     23 F         138.6209  139.6169  168.4342 F       1  UNL1       -0.1659
     24 F         138.1521  138.6883  165.6203 F       1  UNL1       -0.1659
     25 C         141.8801  138.5095  157.1276 C.3     1  UNL1        0.0251
     26 C         141.2907  139.7339  156.4924 C.3     1  UNL1        0.0217
     27 C         141.0031  140.9469  157.3265 C.3     1  UNL1        0.0724
     28 N         141.3047  140.9356  158.7958 N.3     1  UNL1       -0.2738
     29 C         141.8941  139.7111  159.4310 C.3     1  UNL1        0.0724
     30 C         142.1817  138.4981  158.5969 C.3     1  UNL1        0.0217
     31 C         142.8964  134.8090  156.1161 C.ar    1  UNL1        0.0530
     32 C         142.7430  134.8704  154.6252 C.ar    1  UNL1        0.0045
     33 C         142.3019  136.1447  153.9685 C.ar    1  UNL1       -0.0002
     34 C         142.0143  137.3578  154.8026 C.ar    1  UNL1       -0.0043
     35 C         142.1677  137.2964  156.2935 C.ar    1  UNL1       -0.0223
     36 C         142.6088  136.0220  156.9502 C.ar    1  UNL1        0.0002
     37 C         145.1569  132.1543  158.0118 C.3     1  UNL1        0.1109
     38 N         144.7158  133.4288  157.3551 N.am    1  UNL1       -0.2992
     39 C         143.3375  133.5345  156.7728 C.2     1  UNL1        0.2459
     40 O         142.4003  132.3657  156.8471 O.2     1  UNL1       -0.2701
     41 H         145.3309  134.1960  157.3063 H       1  UNL1        0.1498
@<TRIPOS>BOND
     1    37    38    1
     2    38    39   am
     3    39    40    2
     4    39    31    1
     5    31    32   ar
     6    32    33   ar
     7    33    34   ar
     8    34    35   ar
     9    35    25    1
    10    25    26    1
    11    26    27    1
    12    27    28    1
    13     1    28    1
    14     1     2    1
    15     3     2    1
    16     3     4    1
    17     4     5    1
    18     5     6    1
    19     6     7    1
    20     7     9    1
    21     9    10    2
    22     9    11   am
    23    11    12    1
    24    12    13    1
    25    13    14    1
    26    14    15   ar
    27    15    16   ar
    28    16    17   ar
    29    17    21    1
    30    21    22    1
    31    21    23    1
    32    21    24    1
    33    17    18   ar
    34    18    19   ar
    35    19    20    1
    36     7     8    1
    37    28    29    1
    38    29    30    1
    39    35    36   ar
    40    36    31   ar
    41    30    25    1
    42     8     1    1
    43     7     3    1
    44    20    11    1
    45    19    14   ar
    46    38    41    1
@<TRIPOS>MOLECULE
*****
 41 46 0 0 0
SMALL
GASTEIGER

@<TRIPOS>ATOM
      1 C         141.4961  140.8907  158.6710 C.3     1  UNL1        0.0605
      2 C         142.5606  141.9469  158.7047 C.3     1  UNL1        0.0460
      3 C         142.0225  143.1233  159.4640 C.3     1  UNL1        0.1247
      4 O         142.3477  144.5031  159.9541 O.3     1  UNL1       -0.3557
      5 C         141.1517  145.0267  160.6926 C.3     1  UNL1        0.1426
      6 C         140.0872  143.9705  160.6589 C.3     1  UNL1        0.0431
      7 C         140.6253  142.7941  159.8996 C.3     1  UNL1        0.0977
      8 C         140.3000  141.4143  159.4095 C.3     1  UNL1        0.0271
      9 C         139.2282  142.4649  160.3352 C.2     1  UNL1        0.2299
     10 O         138.0672  142.7975  159.4456 O.2     1  UNL1       -0.2747
     11 N         138.9921  141.8029  161.6604 N.am    1  UNL1       -0.2383
     12 C         137.5951  141.4737  162.0960 C.3     1  UNL1        0.3077
     13 O         137.3590  140.8118  163.4212 O.3     1  UNL1       -0.4553
     14 C         138.5200  140.4791  164.3108 C.ar    1  UNL1        0.1383
     15 C         138.2839  139.8172  165.6360 C.ar    1  UNL1        0.0366
     16 C         139.4449  139.4845  166.5256 C.ar    1  UNL1        0.0069
     17 C         140.8420  139.8138  166.0899 C.ar    1  UNL1        0.0714
     18 C         141.0781  140.4757  164.7648 C.ar    1  UNL1        0.0042
     19 C         139.9171  140.8083  163.8752 C.ar    1  UNL1        0.0318
     20 C         140.1531  141.4702  162.5500 C.3     1  UNL1        0.1265
     21 C         142.0031  139.4811  166.9795 C.3     1  UNL1        0.4186
     22 F         143.1641  139.1484  167.8691 F       1  UNL1       -0.1659
     23 F         141.1146  139.5975  168.1825 F       1  UNL1       -0.1659
     24 F         142.8915  139.3647  165.7766 F       1  UNL1       -0.1659
     25 C         141.8315  136.8590  156.7004 C.3     1  UNL1        0.0251
     26 C         143.0024  137.4302  157.4439 C.3     1  UNL1        0.0217
     27 C         142.8906  138.7740  158.1008 C.3     1  UNL1        0.0724
     28 N         141.6079  139.5467  158.0141 N.3     1  UNL1       -0.2738
     29 C         140.4370  138.9756  157.2706 C.3     1  UNL1        0.0724
     30 C         140.5488  137.6317  156.6138 C.3     1  UNL1        0.0217
     31 C         142.9488  133.1204  155.9760 C.ar    1  UNL1        0.0530
     32 C         142.1671  132.8274  154.7298 C.ar    1  UNL1        0.0045
     33 C         141.2735  133.8782  154.1405 C.ar    1  UNL1       -0.0002
     34 C         141.1617  135.2220  154.7974 C.ar    1  UNL1       -0.0043
     35 C         141.9434  135.5151  156.0436 C.ar    1  UNL1       -0.0223
     36 C         142.8369  134.4643  156.6329 C.ar    1  UNL1        0.0002
     37 C         144.1946  130.0583  158.1718 C.3     1  UNL1        0.1109
     38 N         143.3011  131.1092  157.5825 N.am    1  UNL1       -0.2992
     39 C         143.8423  132.0696  156.5654 C.2     1  UNL1        0.2459
     40 O         145.2772  131.9792  156.1375 O.2     1  UNL1       -0.2701
     41 H         142.3593  131.1685  157.8633 H       1  UNL1        0.1498
@<TRIPOS>BOND
     1    37    38    1
     2    38    39   am
     3    39    40    2
     4    39    31    1
     5    31    32   ar
     6    32    33   ar
     7    33    34   ar
     8    34    35   ar
     9    35    25    1
    10    25    26    1
    11    26    27    1
    12    27    28    1
    13     1    28    1
    14     1     2    1
    15     3     2    1
    16     3     4    1
    17     4     5    1
    18     5     6    1
    19     6     7    1
    20     7     9    1
    21     9    10    2
    22     9    11   am
    23    11    12    1
    24    12    13    1
    25    13    14    1
    26    14    15   ar
    27    15    16   ar
    28    16    17   ar
    29    17    21    1
    30    21    22    1
    31    21    23    1
    32    21    24    1
    33    17    18   ar
    34    18    19   ar
    35    19    20    1
    36     7     8    1
    37    28    29    1
    38    29    30    1
    39    35    36   ar
    40    36    31   ar
    41    30    25    1
    42     8     1    1
    43     7     3    1
    44    20    11    1
    45    19    14   ar
    46    38    41    1
@<TRIPOS>MOLECULE
*****
 41 46 0 0 0
SMALL
GASTEIGER

@<TRIPOS>ATOM
      1 C         140.3761  141.4631  161.1111 C.3     1  UNL1        0.0605
      2 C         138.9203  141.7578  161.3207 C.3     1  UNL1        0.0460
      3 C         138.8092  142.8171  162.3769 C.3     1  UNL1        0.1247
      4 O         137.8409  143.6539  163.1591 O.3     1  UNL1       -0.3557
      5 C         138.6294  144.5311  164.0858 C.3     1  UNL1        0.1426
      6 C         140.0852  144.2364  163.8762 C.3     1  UNL1        0.0431
      7 C         140.1963  143.1771  162.8201 C.3     1  UNL1        0.0977
      8 C         141.1647  142.3403  162.0378 C.3     1  UNL1        0.0271
      9 C         141.5834  143.5371  163.2633 C.2     1  UNL1        0.2299
     10 O         142.5011  144.2725  162.3322 O.2     1  UNL1       -0.2747
     11 N         142.0528  143.1616  164.6376 N.am    1  UNL1       -0.2383
     12 C         143.4399  143.5216  165.0808 C.3     1  UNL1        0.3077
     13 O         143.9092  143.1461  166.4550 O.3     1  UNL1       -0.4553
     14 C         142.9915  142.4107  167.3861 C.ar    1  UNL1        0.1383
     15 C         143.4609  142.0352  168.7605 C.ar    1  UNL1        0.0366
     16 C         142.5432  141.2998  169.6916 C.ar    1  UNL1        0.0069
     17 C         141.1561  140.9398  169.2484 C.ar    1  UNL1        0.0714
     18 C         140.6867  141.3153  167.8741 C.ar    1  UNL1        0.0042
     19 C         141.6044  142.0507  166.9430 C.ar    1  UNL1        0.0318
     20 C         141.1351  142.4262  165.5687 C.3     1  UNL1        0.1265
     21 C         140.2384  140.2044  170.1795 C.3     1  UNL1        0.4186
     22 F         139.3207  139.4689  171.1106 F       1  UNL1       -0.1659
     23 F         141.2504  139.1047  170.3083 F       1  UNL1       -0.1659
     24 F         139.2264  141.3040  170.0506 F       1  UNL1       -0.1659
     25 C         142.0788  138.4725  158.2117 C.3     1  UNL1        0.0251
     26 C         140.9012  139.3134  157.8167 C.3     1  UNL1        0.0217
     27 C         140.3336  140.3103  158.7832 C.3     1  UNL1        0.0724
     28 N         140.9437  140.4662  160.1446 N.3     1  UNL1       -0.2738
     29 C         142.1213  139.6253  160.5395 C.3     1  UNL1        0.0724
     30 C         142.6889  138.6284  159.5731 C.3     1  UNL1        0.0217
     31 C         143.4090  135.0526  156.7002 C.ar    1  UNL1        0.0530
     32 C         143.7815  135.4820  155.3121 C.ar    1  UNL1        0.0045
     33 C         143.5865  136.9082  154.8905 C.ar    1  UNL1       -0.0002
     34 C         143.0189  137.9050  155.8570 C.ar    1  UNL1       -0.0043
     35 C         142.6464  137.4756  157.2451 C.ar    1  UNL1       -0.0223
     36 C         142.8415  136.0494  157.6667 C.ar    1  UNL1        0.0002
     37 C         145.1467  131.7328  158.0078 C.3     1  UNL1        0.1109
     38 N         144.9516  133.1591  157.5863 N.am    1  UNL1       -0.2992
     39 C         143.6041  133.6262  157.1217 C.2     1  UNL1        0.2459
     40 O         142.4516  132.6672  157.0787 O.2     1  UNL1       -0.2701
     41 H         145.7081  133.7886  157.6145 H       1  UNL1        0.1498
@<TRIPOS>BOND
     1    37    38    1
     2    38    39   am
     3    39    40    2
     4    39    31    1
     5    31    32   ar
     6    32    33   ar
     7    33    34   ar
     8    34    35   ar
     9    35    25    1
    10    25    26    1
    11    26    27    1
    12    27    28    1
    13     1    28    1
    14     1     2    1
    15     3     2    1
    16     3     4    1
    17     4     5    1
    18     5     6    1
    19     6     7    1
    20     7     9    1
    21     9    10    2
    22     9    11   am
    23    11    12    1
    24    12    13    1
    25    13    14    1
    26    14    15   ar
    27    15    16   ar
    28    16    17   ar
    29    17    21    1
    30    21    22    1
    31    21    23    1
    32    21    24    1
    33    17    18   ar
    34    18    19   ar
    35    19    20    1
    36     7     8    1
    37    28    29    1
    38    29    30    1
    39    35    36   ar
    40    36    31   ar
    41    30    25    1
    42     8     1    1
    43     7     3    1
    44    20    11    1
    45    19    14   ar
    46    38    41    1
@<TRIPOS>MOLECULE
*****
 41 46 0 0 0
SMALL
GASTEIGER

@<TRIPOS>ATOM
      1 C         142.4298  139.9946  160.2157 C.3     1  UNL1        0.0605
      2 C         143.8567  140.4115  160.0157 C.3     1  UNL1        0.0460
      3 C         144.1404  140.4017  158.5428 C.3     1  UNL1        0.1247
      4 O         145.1976  140.6533  157.5089 O.3     1  UNL1       -0.3557
      5 C         144.5993  140.3859  156.1596 C.3     1  UNL1        0.1426
      6 C         143.1723  139.9690  156.3596 C.3     1  UNL1        0.0431
      7 C         142.8887  139.9788  157.8325 C.3     1  UNL1        0.0977
      8 C         141.8315  139.7272  158.8664 C.3     1  UNL1        0.0271
      9 C         141.6370  139.5559  157.1222 C.2     1  UNL1        0.2299
     10 O         140.5215  140.5380  156.9194 O.2     1  UNL1       -0.2747
     11 N         141.5009  138.1509  156.6148 N.am    1  UNL1       -0.2383
     12 C         140.2492  137.7280  155.9045 C.3     1  UNL1        0.3077
     13 O         140.1131  136.3230  155.3971 O.3     1  UNL1       -0.4553
     14 C         141.2286  135.3409  155.6000 C.ar    1  UNL1        0.1383
     15 C         141.0925  133.9359  155.0926 C.ar    1  UNL1        0.0366
     16 C         142.2080  132.9538  155.2954 C.ar    1  UNL1        0.0069
     17 C         143.4597  133.3768  156.0057 C.ar    1  UNL1        0.0714
     18 C         143.5958  134.7818  156.5131 C.ar    1  UNL1        0.0042
     19 C         142.4803  135.7638  156.3103 C.ar    1  UNL1        0.0318
     20 C         142.6164  137.1688  156.8177 C.3     1  UNL1        0.1265
     21 C         144.5752  132.3947  156.2086 C.3     1  UNL1        0.4186
     22 F         145.6907  131.4127  156.4115 F       1  UNL1       -0.1659
     23 F         144.2248  131.7287  154.9111 F       1  UNL1       -0.1659
     24 F         144.9256  133.0608  157.5061 F       1  UNL1       -0.1659
     25 C         140.3149  139.6133  164.1694 C.3     1  UNL1        0.0251
     26 C         140.8197  138.3875  163.4676 C.3     1  UNL1        0.0217
     27 C         141.5246  138.5146  162.1497 C.3     1  UNL1        0.0724
     28 N         141.7248  139.8675  161.5337 N.3     1  UNL1       -0.2738
     29 C         141.2200  141.0933  162.2355 C.3     1  UNL1        0.0724
     30 C         140.5151  140.9662  163.5534 C.3     1  UNL1        0.0217
     31 C         139.4120  140.1072  168.0023 C.ar    1  UNL1        0.0530
     32 C         138.1999  139.2318  168.1231 C.ar    1  UNL1        0.0045
     33 C         137.6929  138.4835  166.9261 C.ar    1  UNL1       -0.0002
     34 C         138.3979  138.6107  165.6082 C.ar    1  UNL1       -0.0043
     35 C         139.6099  139.4861  165.4874 C.ar    1  UNL1       -0.0223
     36 C         140.1169  140.2344  166.6844 C.ar    1  UNL1        0.0002
     37 C         141.8684  142.0085  170.4725 C.3     1  UNL1        0.1109
     38 N         141.3614  141.2602  169.2753 N.am    1  UNL1       -0.2992
     39 C         139.9190  140.8555  169.1994 C.2     1  UNL1        0.2459
     40 O         138.9836  141.1991  170.3206 O.2     1  UNL1       -0.2701
     41 H         141.9753  141.0347  168.5395 H       1  UNL1        0.1498
@<TRIPOS>BOND
     1    37    38    1
     2    38    39   am
     3    39    40    2
     4    39    31    1
     5    31    32   ar
     6    32    33   ar
     7    33    34   ar
     8    34    35   ar
     9    35    25    1
    10    25    26    1
    11    26    27    1
    12    27    28    1
    13     1    28    1
    14     1     2    1
    15     3     2    1
    16     3     4    1
    17     4     5    1
    18     5     6    1
    19     6     7    1
    20     7     9    1
    21     9    10    2
    22     9    11   am
    23    11    12    1
    24    12    13    1
    25    13    14    1
    26    14    15   ar
    27    15    16   ar
    28    16    17   ar
    29    17    21    1
    30    21    22    1
    31    21    23    1
    32    21    24    1
    33    17    18   ar
    34    18    19   ar
    35    19    20    1
    36     7     8    1
    37    28    29    1
    38    29    30    1
    39    35    36   ar
    40    36    31   ar
    41    30    25    1
    42     8     1    1
    43     7     3    1
    44    20    11    1
    45    19    14   ar
    46    38    41    1
@<TRIPOS>MOLECULE
*****
 41 46 0 0 0
SMALL
GASTEIGER

@<TRIPOS>ATOM
      1 C         143.1045  141.5913  160.2763 C.3     1  UNL1        0.0605
      2 C         144.3402  142.3415  160.6765 C.3     1  UNL1        0.0460
      3 C         143.9442  143.3869  161.6766 C.3     1  UNL1        0.1247
      4 O         144.4631  144.4967  162.5421 O.3     1  UNL1       -0.3557
      5 C         143.3033  145.0784  163.2949 C.3     1  UNL1        0.1426
      6 C         142.0677  144.3282  162.8947 C.3     1  UNL1        0.0431
      7 C         142.4637  143.2828  161.8945 C.3     1  UNL1        0.0977
      8 C         141.9448  142.1730  161.0290 C.3     1  UNL1        0.0271
      9 C         140.9833  143.1786  162.1124 C.2     1  UNL1        0.2299
     10 O         140.0348  143.7828  161.1198 O.2     1  UNL1       -0.2747
     11 N         140.4513  142.4702  163.3229 N.am    1  UNL1       -0.2383
     12 C         138.9709  142.3660  163.5407 C.3     1  UNL1        0.3077
     13 O         138.4390  141.6576  164.7512 O.3     1  UNL1       -0.4553
     14 C         139.3875  141.0534  165.7438 C.ar    1  UNL1        0.1383
     15 C         138.8556  140.3450  166.9543 C.ar    1  UNL1        0.0366
     16 C         139.8041  139.7408  167.9469 C.ar    1  UNL1        0.0069
     17 C         141.2846  139.8450  167.7290 C.ar    1  UNL1        0.0714
     18 C         141.8165  140.5534  166.5185 C.ar    1  UNL1        0.0042
     19 C         140.8679  141.1576  165.5259 C.ar    1  UNL1        0.0318
     20 C         141.3998  141.8660  164.3155 C.3     1  UNL1        0.1265
     21 C         142.2331  139.2408  168.7216 C.3     1  UNL1        0.4186
     22 F         143.1816  138.6365  169.7142 F       1  UNL1       -0.1659
     23 F         143.2229  138.9896  167.6228 F       1  UNL1       -0.1659
     24 F         141.2433  139.4919  169.8203 F       1  UNL1       -0.1659
     25 C         142.9105  138.1920  157.3339 C.3     1  UNL1        0.0251
     26 C         143.4957  139.5097  156.9201 C.3     1  UNL1        0.0217
     27 C         143.5604  140.6428  157.9008 C.3     1  UNL1        0.0724
     28 N         143.0398  140.4582  159.2954 N.3     1  UNL1       -0.2738
     29 C         142.4546  139.1405  159.7092 C.3     1  UNL1        0.0724
     30 C         142.3900  138.0074  158.7285 C.3     1  UNL1        0.0217
     31 C         143.3805  134.5961  155.7219 C.ar    1  UNL1        0.0530
     32 C         142.7165  134.7929  154.3914 C.ar    1  UNL1        0.0045
     33 C         142.1172  136.1228  154.0416 C.ar    1  UNL1       -0.0002
     34 C         142.1818  137.2558  155.0225 C.ar    1  UNL1       -0.0043
     35 C         142.8458  137.0589  156.3530 C.ar    1  UNL1       -0.0223
     36 C         143.4452  135.7291  156.7027 C.ar    1  UNL1        0.0002
     37 C         145.2325  131.7359  157.7566 C.3     1  UNL1        0.1109
     38 N         144.6332  133.0658  157.4069 N.am    1  UNL1       -0.2992
     39 C         143.9798  133.2662  156.0716 C.2     1  UNL1        0.2459
     40 O         143.9258  132.1368  155.0860 O.2     1  UNL1       -0.2701
     41 H         144.6686  133.8071  158.0537 H       1  UNL1        0.1498
@<TRIPOS>BOND
     1    37    38    1
     2    38    39   am
     3    39    40    2
     4    39    31    1
     5    31    32   ar
     6    32    33   ar
     7    33    34   ar
     8    34    35   ar
     9    35    25    1
    10    25    26    1
    11    26    27    1
    12    27    28    1
    13     1    28    1
    14     1     2    1
    15     3     2    1
    16     3     4    1
    17     4     5    1
    18     5     6    1
    19     6     7    1
    20     7     9    1
    21     9    10    2
    22     9    11   am
    23    11    12    1
    24    12    13    1
    25    13    14    1
    26    14    15   ar
    27    15    16   ar
    28    16    17   ar
    29    17    21    1
    30    21    22    1
    31    21    23    1
    32    21    24    1
    33    17    18   ar
    34    18    19   ar
    35    19    20    1
    36     7     8    1
    37    28    29    1
    38    29    30    1
    39    35    36   ar
    40    36    31   ar
    41    30    25    1
    42     8     1    1
    43     7     3    1
    44    20    11    1
    45    19    14   ar
    46    38    41    1
@<TRIPOS>MOLECULE
*****
 41 46 0 0 0
SMALL
GASTEIGER

@<TRIPOS>ATOM
      1 C         140.7711  139.9759  158.3878 C.3     1  UNL1        0.0605
      2 C         139.5117  140.7731  158.2196 C.3     1  UNL1        0.0460
      3 C         139.5993  141.9729  159.1156 C.3     1  UNL1        0.1247
      4 O         138.8752  143.2070  159.5654 O.3     1  UNL1       -0.3557
      5 C         139.7412  143.9141  160.5654 C.3     1  UNL1        0.1426
      6 C         141.0006  143.1170  160.7337 C.3     1  UNL1        0.0431
      7 C         140.9130  141.9172  159.8376 C.3     1  UNL1        0.0977
      8 C         141.6372  140.6830  159.3878 C.3     1  UNL1        0.0271
      9 C         142.2266  141.8615  160.5596 C.2     1  UNL1        0.2299
     10 O         143.4856  142.2794  159.8595 O.2     1  UNL1       -0.2747
     11 N         142.2812  141.3879  161.9819 N.am    1  UNL1       -0.2383
     12 C         143.5948  141.3322  162.7039 C.3     1  UNL1        0.3077
     13 O         143.6494  140.8585  164.1261 O.3     1  UNL1       -0.4553
     14 C         142.3904  140.4406  164.8263 C.ar    1  UNL1        0.1383
     15 C         142.4450  139.9670  166.2486 C.ar    1  UNL1        0.0366
     16 C         141.1860  139.5491  166.9487 C.ar    1  UNL1        0.0069
     17 C         139.8724  139.6048  166.2267 C.ar    1  UNL1        0.0714
     18 C         139.8178  140.0784  164.8045 C.ar    1  UNL1        0.0042
     19 C         141.0768  140.4964  164.1043 C.ar    1  UNL1        0.0318
     20 C         141.0222  140.9700  162.6821 C.3     1  UNL1        0.1265
     21 C         138.6134  139.1869  166.9269 C.3     1  UNL1        0.4186
     22 F         137.3544  138.7690  167.6270 F       1  UNL1       -0.1659
     23 F         138.0269  138.7561  165.6152 F       1  UNL1       -0.1659
     24 F         139.1999  139.6177  168.2385 F       1  UNL1       -0.1659
     25 C         141.7751  136.1371  156.2652 C.3     1  UNL1        0.0251
     26 C         142.7708  136.7612  157.1974 C.3     1  UNL1        0.0217
     27 C         142.4362  138.0408  157.9049 C.3     1  UNL1        0.0724
     28 N         141.1058  138.6963  157.6803 N.3     1  UNL1       -0.2738
     29 C         140.1101  138.0721  156.7481 C.3     1  UNL1        0.0724
     30 C         140.4447  136.7925  156.0405 C.3     1  UNL1        0.0217
     31 C         143.1949  132.4970  155.5700 C.ar    1  UNL1        0.0530
     32 C         142.7790  132.2983  154.1425 C.ar    1  UNL1        0.0045
     33 C         142.0285  133.3792  153.4226 C.ar    1  UNL1       -0.0002
     34 C         141.6939  134.6588  154.1302 C.ar    1  UNL1       -0.0043
     35 C         142.1098  134.8575  155.5576 C.ar    1  UNL1       -0.0223
     36 C         142.8603  133.7765  156.2775 C.ar    1  UNL1        0.0002
     37 C         144.2769  129.9220  158.3895 C.3     1  UNL1        0.1109
     38 N         143.5263  131.0030  157.6696 N.am    1  UNL1       -0.2992
     39 C         143.9455  131.4160  156.2899 C.2     1  UNL1        0.2459
     40 O         145.1152  130.7480  155.6299 O.2     1  UNL1       -0.2701
     41 H         142.7586  131.4415  158.1027 H       1  UNL1        0.1498
@<TRIPOS>BOND
     1    37    38    1
     2    38    39   am
     3    39    40    2
     4    39    31    1
     5    31    32   ar
     6    32    33   ar
     7    33    34   ar
     8    34    35   ar
     9    35    25    1
    10    25    26    1
    11    26    27    1
    12    27    28    1
    13     1    28    1
    14     1     2    1
    15     3     2    1
    16     3     4    1
    17     4     5    1
    18     5     6    1
    19     6     7    1
    20     7     9    1
    21     9    10    2
    22     9    11   am
    23    11    12    1
    24    12    13    1
    25    13    14    1
    26    14    15   ar
    27    15    16   ar
    28    16    17   ar
    29    17    21    1
    30    21    22    1
    31    21    23    1
    32    21    24    1
    33    17    18   ar
    34    18    19   ar
    35    19    20    1
    36     7     8    1
    37    28    29    1
    38    29    30    1
    39    35    36   ar
    40    36    31   ar
    41    30    25    1
    42     8     1    1
    43     7     3    1
    44    20    11    1
    45    19    14   ar
    46    38    41    1
@<TRIPOS>MOLECULE
*****
 41 46 0 0 0
SMALL
GASTEIGER

@<TRIPOS>ATOM
      1 C         139.3213  142.0006  160.6105 C.3     1  UNL1        0.0605
      2 C         138.0378  141.3729  161.0672 C.3     1  UNL1        0.0460
      3 C         138.3563  140.4313  162.1905 C.3     1  UNL1        0.1247
      4 O         137.7599  139.4615  163.1671 O.3     1  UNL1       -0.3557
      5 C         138.8717  138.9078  164.0082 C.3     1  UNL1        0.1426
      6 C         140.1552  139.5354  163.5515 C.3     1  UNL1        0.0431
      7 C         139.8367  140.4770  162.4281 C.3     1  UNL1        0.0977
      8 C         140.4330  141.4469  161.4516 C.3     1  UNL1        0.0271
      9 C         141.3170  140.5228  162.6656 C.2     1  UNL1        0.2299
     10 O         142.2646  140.1244  161.5732 O.2     1  UNL1       -0.2747
     11 N         141.8499  140.9669  163.9957 N.am    1  UNL1       -0.2383
     12 C         143.3302  141.0126  164.2332 C.3     1  UNL1        0.3077
     13 O         143.8630  141.4567  165.5632 O.3     1  UNL1       -0.4553
     14 C         142.9154  141.8550  166.6556 C.ar    1  UNL1        0.1383
     15 C         143.4483  142.2991  167.9857 C.ar    1  UNL1        0.0366
     16 C         142.5007  142.6974  169.0781 C.ar    1  UNL1        0.0069
     17 C         141.0203  142.6517  168.8406 C.ar    1  UNL1        0.0714
     18 C         140.4875  142.2076  167.5106 C.ar    1  UNL1        0.0042
     19 C         141.4351  141.8093  166.4181 C.ar    1  UNL1        0.0318
     20 C         140.9023  141.3652  165.0881 C.3     1  UNL1        0.1265
     21 C         140.0727  143.0500  169.9330 C.3     1  UNL1        0.4186
     22 F         139.1252  143.4483  171.0255 F       1  UNL1       -0.1659
     23 F         139.5118  141.6590  169.9537 F       1  UNL1       -0.1659
     24 F         140.6337  144.4410  169.9124 F       1  UNL1       -0.1659
     25 C         139.7597  145.0154  157.2986 C.3     1  UNL1        0.0251
     26 C         139.0307  143.7283  157.0495 C.3     1  UNL1        0.0217
     27 C         138.8845  142.7234  158.1534 C.3     1  UNL1        0.0724
     28 N         139.4674  143.0055  159.5064 N.3     1  UNL1       -0.2738
     29 C         140.1964  144.2926  159.7555 C.3     1  UNL1        0.0724
     30 C         140.3426  145.2975  158.6516 C.3     1  UNL1        0.0217
     31 C         139.4196  148.3791  155.2202 C.ar    1  UNL1        0.0530
     32 C         140.1982  148.0301  153.9866 C.ar    1  UNL1        0.0045
     33 C         140.8306  146.6762  153.8569 C.ar    1  UNL1       -0.0002
     34 C         140.6845  145.6713  154.9609 C.ar    1  UNL1       -0.0043
     35 C         139.9059  146.0203  156.1945 C.ar    1  UNL1       -0.0223
     36 C         139.2734  147.3743  156.3242 C.ar    1  UNL1        0.0002
     37 C         138.5714  152.2003  154.5646 C.3     1  UNL1        0.1109
     38 N         139.2039  150.8463  154.4350 N.am    1  UNL1       -0.2992
     39 C         138.7871  149.7331  155.3499 C.2     1  UNL1        0.2459
     40 O         137.7379  149.9739  156.3945 O.2     1  UNL1       -0.2701
     41 H         139.8925  150.6883  153.7494 H       1  UNL1        0.1498
@<TRIPOS>BOND
     1    37    38    1
     2    38    39   am
     3    39    40    2
     4    39    31    1
     5    31    32   ar
     6    32    33   ar
     7    33    34   ar
     8    34    35   ar
     9    35    25    1
    10    25    26    1
    11    26    27    1
    12    27    28    1
    13     1    28    1
    14     1     2    1
    15     3     2    1
    16     3     4    1
    17     4     5    1
    18     5     6    1
    19     6     7    1
    20     7     9    1
    21     9    10    2
    22     9    11   am
    23    11    12    1
    24    12    13    1
    25    13    14    1
    26    14    15   ar
    27    15    16   ar
    28    16    17   ar
    29    17    21    1
    30    21    22    1
    31    21    23    1
    32    21    24    1
    33    17    18   ar
    34    18    19   ar
    35    19    20    1
    36     7     8    1
    37    28    29    1
    38    29    30    1
    39    35    36   ar
    40    36    31   ar
    41    30    25    1
    42     8     1    1
    43     7     3    1
    44    20    11    1
    45    19    14   ar
    46    38    41    1
@<TRIPOS>MOLECULE
*****
 41 46 0 0 0
SMALL
GASTEIGER

@<TRIPOS>ATOM
      1 C         139.2880  141.0526  159.6614 C.3     1  UNL1        0.0605
      2 C         138.0277  141.1387  160.4701 C.3     1  UNL1        0.0460
      3 C         138.1406  142.3263  161.3795 C.3     1  UNL1        0.1247
      4 O         137.4315  143.1135  162.4413 O.3     1  UNL1       -0.3557
      5 C         138.3235  144.2478  162.8508 C.3     1  UNL1        0.1426
      6 C         139.5839  144.1617  162.0421 C.3     1  UNL1        0.0431
      7 C         139.4709  142.9741  161.1328 C.3     1  UNL1        0.0977
      8 C         140.1800  142.1869  160.0710 C.3     1  UNL1        0.0271
      9 C         140.8011  143.6219  160.8861 C.2     1  UNL1        0.2299
     10 O         140.9026  144.7975  159.9599 O.2     1  UNL1       -0.2747
     11 N         142.0299  143.0941  161.5656 N.am    1  UNL1       -0.2383
     12 C         143.3601  143.7419  161.3189 C.3     1  UNL1        0.3077
     13 O         144.5888  143.2142  161.9983 O.3     1  UNL1       -0.4553
     14 C         144.4873  142.0386  162.9245 C.ar    1  UNL1        0.1383
     15 C         145.7161  141.5108  163.6039 C.ar    1  UNL1        0.0366
     16 C         145.6146  140.3353  164.5301 C.ar    1  UNL1        0.0069
     17 C         144.2843  139.6875  164.7768 C.ar    1  UNL1        0.0714
     18 C         143.0556  140.2153  164.0973 C.ar    1  UNL1        0.0042
     19 C         143.1571  141.3908  163.1712 C.ar    1  UNL1        0.0318
     20 C         141.9284  141.9186  162.4917 C.3     1  UNL1        0.1265
     21 C         144.1828  138.5119  165.7029 C.3     1  UNL1        0.4186
     22 F         144.0813  137.3364  166.6291 F       1  UNL1       -0.1659
     23 F         145.6788  138.4081  165.7352 F       1  UNL1       -0.1659
     24 F         142.6867  138.6157  165.6707 F       1  UNL1       -0.1659
     25 C         140.2285  137.9380  156.5526 C.3     1  UNL1        0.0251
     26 C         139.1578  138.9562  156.2942 C.3     1  UNL1        0.0217
     27 C         138.8443  139.9944  157.3304 C.3     1  UNL1        0.0724
     28 N         139.6015  140.0143  158.6251 N.3     1  UNL1       -0.2738
     29 C         140.6722  138.9961  158.8835 C.3     1  UNL1        0.0724
     30 C         140.9857  137.9579  157.8473 C.3     1  UNL1        0.0217
     31 C         141.6796  134.6627  154.8448 C.ar    1  UNL1        0.0530
     32 C         141.1687  134.8235  153.4436 C.ar    1  UNL1        0.0045
     33 C         140.3445  136.0224  153.0788 C.ar    1  UNL1       -0.0002
     34 C         140.0311  137.0605  154.1151 C.ar    1  UNL1       -0.0043
     35 C         140.5419  136.8997  155.5163 C.ar    1  UNL1       -0.0223
     36 C         141.3661  135.7008  155.8811 C.ar    1  UNL1        0.0002
     37 C         143.5756  131.9353  157.0167 C.3     1  UNL1        0.1109
     38 N         142.7513  133.1343  156.6519 N.am    1  UNL1       -0.2992
     39 C         142.5038  133.4637  155.2096 C.2     1  UNL1        0.2459
     40 O         143.0806  132.5940  154.1321 O.2     1  UNL1       -0.2701
     41 H         142.3728  133.7051  157.3591 H       1  UNL1        0.1498
@<TRIPOS>BOND
     1    37    38    1
     2    38    39   am
     3    39    40    2
     4    39    31    1
     5    31    32   ar
     6    32    33   ar
     7    33    34   ar
     8    34    35   ar
     9    35    25    1
    10    25    26    1
    11    26    27    1
    12    27    28    1
    13     1    28    1
    14     1     2    1
    15     3     2    1
    16     3     4    1
    17     4     5    1
    18     5     6    1
    19     6     7    1
    20     7     9    1
    21     9    10    2
    22     9    11   am
    23    11    12    1
    24    12    13    1
    25    13    14    1
    26    14    15   ar
    27    15    16   ar
    28    16    17   ar
    29    17    21    1
    30    21    22    1
    31    21    23    1
    32    21    24    1
    33    17    18   ar
    34    18    19   ar
    35    19    20    1
    36     7     8    1
    37    28    29    1
    38    29    30    1
    39    35    36   ar
    40    36    31   ar
    41    30    25    1
    42     8     1    1
    43     7     3    1
    44    20    11    1
    45    19    14   ar
    46    38    41    1
