@<TRIPOS>MOLECULE
*****
 39 42 0 0 0
SMALL
GASTEIGER

@<TRIPOS>ATOM
      1 C         140.3144  140.8070  164.4523 C.2     1  UNL1        0.1397
      2 C         140.4882  139.6198  165.3524 C.2     1  UNL1        0.1353
      3 N         140.5367  139.8071  166.8399 N.pl3   1  UNL1       -0.1998
      4 C         140.4113  141.1816  167.4272 C.2     1  UNL1        0.3442
      5 N         140.2375  142.3688  166.5271 N.2     1  UNL1       -0.0580
      6 C         140.1890  142.1815  165.0396 C.3     1  UNL1        0.2692
      7 H         140.6508  139.0279  167.4306 H       1  UNL1        0.2983
      8 C         140.0152  143.3688  164.1394 C.ar    1  UNL1        0.0371
      9 C         141.2172  144.1182  163.6459 C.ar    1  UNL1        0.0030
     10 C         141.0434  145.3054  162.7458 C.ar    1  UNL1        0.0295
     11 C         139.6675  145.7434  162.3392 C.ar    1  UNL1        0.1406
     12 F         139.4937  146.9306  161.4391 F       1  UNL1       -0.2042
     13 C         138.4655  144.9940  162.8328 C.ar    1  UNL1        0.0362
     14 C         138.6393  143.8067  163.7329 C.ar    1  UNL1        0.0372
     15 BR        137.4373  143.0574  164.2265 Br      1  UNL1       -0.0491
     16 C         140.4598  141.3689  168.9147 C.ar    1  UNL1        0.1931
     17 N         140.6592  140.2863  169.9336 N.ar    1  UNL1       -0.2297
     18 C         140.6400  140.9200  171.2931 C.ar    1  UNL1        0.1067
     19 C         140.4288  142.3942  171.1143 C.ar    1  UNL1        0.0577
     20 S         140.3174  142.6717  169.6444 S.2     1  UNL1       -0.0586
     21 C         140.2659  140.6198  162.9648 C.2     1  UNL1        0.3447
     22 O         141.5393  140.5641  162.1740 O.2     1  UNL1       -0.2450
     23 O         138.9441  140.4881  162.2681 O.3     1  UNL1       -0.4455
     24 C         138.0694  138.0621  161.9530 C.3     1  UNL1        0.0513
     25 C         138.6780  139.3082  161.3811 C.3     1  UNL1        0.2089
     26 C         140.6136  138.2453  164.7651 C.3     0  ACE0        0.1371
     27 N         141.8872  137.4710  164.9335 N.3     1  UNL1       -0.2872
     28 H         142.0637  136.9981  164.0471 H       1  UNL1        0.1240
     29 CA        143.1544  138.1831  165.3041 C.3     1  UNL1        0.0958
     30 C         143.6851  138.0898  166.7040 C.2     1  UNL1        0.0649
     31 O         144.8367  137.1787  167.0104 O.co2   1  UNL1       -0.5478
     32 OXT       143.0642  138.9075  167.7975 O.co2   1  UNL1       -0.5478
     33 CB        143.8908  138.9883  164.2750 C.3     1  UNL1        0.0478
     34 CG        144.0926  140.4607  164.4784 C.ar    1  UNL1       -0.0205
     35 CD1       143.5900  141.1210  165.7280 C.ar    1  UNL1       -0.0042
     36 CE1       143.7918  142.5934  165.9314 C.ar    1  UNL1       -0.0003
     37 CZ        144.4961  143.4054  164.8852 C.ar    1  UNL1       -0.0000
     38 CE2       144.9987  142.7452  163.6356 C.ar    1  UNL1       -0.0003
     39 CD2       144.7969  141.2727  163.4322 C.ar    1  UNL1       -0.0042
@<TRIPOS>UNITY_ATOM_ATTR
31 1
charge -1
@<TRIPOS>BOND
     1    24    25    1
     2    25    23    1
     3    23    21    1
     4    21    22    2
     5    21     1    1
     6     1     2    2
     7     2    26    1
     8    26    27    1
     9    27    29    1
    10    29    33    1
    11    33    34    1
    12    34    35   ar
    13    35    36   ar
    14    36    37   ar
    15    37    38   ar
    16    38    39   ar
    17    29    30    1
    18    30    31   ar
    19    30    32   ar
    20     2     3    1
    21     3     4    1
    22     4    16    1
    23    16    17   ar
    24    17    18   ar
    25    18    19   ar
    26    19    20   ar
    27     4     5    2
    28     5     6    1
    29     6     8    1
    30     8     9   ar
    31     9    10   ar
    32    10    11   ar
    33    11    12    1
    34    11    13   ar
    35    13    14   ar
    36    14    15    1
    37     6     1    1
    38    14     8   ar
    39    39    34   ar
    40    20    16   ar
    41    27    28    1
    42     3     7    1
@<TRIPOS>MOLECULE
*****
 39 42 0 0 0
SMALL
GASTEIGER

@<TRIPOS>ATOM
      1 C         140.4047  140.3920  163.1240 C.2     1  UNL1        0.1397
      2 C         140.6258  139.0098  163.6630 C.2     1  UNL1        0.1353
      3 N         140.9671  138.8151  165.1107 N.pl3   1  UNL1       -0.1998
      4 C         141.0872  140.0025  166.0192 C.2     1  UNL1        0.3442
      5 N         140.8661  141.3847  165.4802 N.2     1  UNL1       -0.0580
      6 C         140.5248  141.5794  164.0325 C.3     1  UNL1        0.2692
      7 H         141.1122  137.9079  165.4645 H       1  UNL1        0.2983
      8 C         140.3036  142.9617  163.4935 C.ar    1  UNL1        0.0371
      9 C         141.4716  143.7837  163.0350 C.ar    1  UNL1        0.0030
     10 C         141.2505  145.1659  162.4960 C.ar    1  UNL1        0.0295
     11 C         139.8614  145.7262  162.4154 C.ar    1  UNL1        0.1406
     12 F         139.6403  147.1084  161.8764 F       1  UNL1       -0.2042
     13 C         138.6934  144.9042  162.8739 C.ar    1  UNL1        0.0362
     14 C         138.9146  143.5220  163.4129 C.ar    1  UNL1        0.0372
     15 BR        137.7466  142.7000  163.8714 Br      1  UNL1       -0.0491
     16 C         141.4285  139.8078  167.4668 C.ar    1  UNL1        0.1931
     17 N         142.7259  139.2798  168.0036 N.ar    1  UNL1       -0.2297
     18 C         142.6315  139.2525  169.5003 C.ar    1  UNL1        0.1067
     19 C         141.2758  139.7637  169.8887 C.ar    1  UNL1        0.0577
     20 S         140.5323  140.1068  168.6319 S.2     1  UNL1       -0.0586
     21 C         140.0634  140.5867  161.6764 C.2     1  UNL1        0.3447
     22 O         138.6717  140.3099  161.1901 O.2     1  UNL1       -0.2450
     23 O         141.1138  141.0583  160.7150 O.3     1  UNL1       -0.4455
     24 C         141.8938  143.1634  159.4072 C.3     1  UNL1        0.0513
     25 C         140.8157  142.1864  159.7724 C.3     1  UNL1        0.2089
     26 C         140.5057  137.8223  162.7545 C.3     0  ACE0        0.1371
     27 N         141.7398  137.1197  162.2714 N.3     1  UNL1       -0.2872
     28 H         141.4272  136.3010  161.7495 H       1  UNL1        0.1240
     29 CA        142.7204  137.8426  161.3962 C.3     1  UNL1        0.0958
     30 C         142.3662  138.1559  159.9727 C.2     1  UNL1        0.0649
     31 O         143.4356  138.5785  159.0093 O.co2   1  UNL1       -0.5478
     32 OXT       140.9427  138.0467  159.5125 O.co2   1  UNL1       -0.5478
     33 CB        144.0551  138.2522  161.9445 C.3     1  UNL1        0.0478
     34 CG        144.2350  139.6180  162.5380 C.ar    1  UNL1       -0.0205
     35 CD1       144.2260  139.7957  164.0275 C.ar    1  UNL1       -0.0042
     36 CE1       144.4059  141.1614  164.6210 C.ar    1  UNL1       -0.0003
     37 CZ        144.5947  142.3496  163.7251 C.ar    1  UNL1       -0.0000
     38 CE2       144.6037  142.1720  162.2357 C.ar    1  UNL1       -0.0003
     39 CD2       144.4238  140.8061  161.6421 C.ar    1  UNL1       -0.0042
@<TRIPOS>UNITY_ATOM_ATTR
31 1
charge -1
@<TRIPOS>BOND
     1    24    25    1
     2    25    23    1
     3    23    21    1
     4    21    22    2
     5    21     1    1
     6     1     2    2
     7     2    26    1
     8    26    27    1
     9    27    29    1
    10    29    33    1
    11    33    34    1
    12    34    35   ar
    13    35    36   ar
    14    36    37   ar
    15    37    38   ar
    16    38    39   ar
    17    29    30    1
    18    30    31   ar
    19    30    32   ar
    20     2     3    1
    21     3     4    1
    22     4    16    1
    23    16    17   ar
    24    17    18   ar
    25    18    19   ar
    26    19    20   ar
    27     4     5    2
    28     5     6    1
    29     6     8    1
    30     8     9   ar
    31     9    10   ar
    32    10    11   ar
    33    11    12    1
    34    11    13   ar
    35    13    14   ar
    36    14    15    1
    37     6     1    1
    38    14     8   ar
    39    39    34   ar
    40    20    16   ar
    41    27    28    1
    42     3     7    1
@<TRIPOS>MOLECULE
*****
 39 42 0 0 0
SMALL
GASTEIGER

@<TRIPOS>ATOM
      1 C         139.3028  140.0344  167.9613 C.2     1  UNL1        0.1397
      2 C         138.1702  139.1254  167.5860 C.2     1  UNL1        0.1353
      3 N         137.2873  138.5477  168.6521 N.pl3   1  UNL1       -0.1998
      4 C         137.5369  138.8790  170.0936 C.2     1  UNL1        0.3442
      5 N         138.6695  139.7880  170.4689 N.2     1  UNL1       -0.0580
      6 C         139.5524  140.3657  169.4027 C.3     1  UNL1        0.2692
      7 H         136.5439  137.9510  168.4058 H       1  UNL1        0.2983
      8 C         140.6850  141.2748  169.7781 C.ar    1  UNL1        0.0371
      9 C         140.4603  142.7552  169.8679 C.ar    1  UNL1        0.0030
     10 C         141.5929  143.6642  170.2433 C.ar    1  UNL1        0.0295
     11 C         142.9502  143.0929  170.5288 C.ar    1  UNL1        0.1406
     12 F         144.0827  144.0020  170.9042 F       1  UNL1       -0.2042
     13 C         143.1748  141.6126  170.4390 C.ar    1  UNL1        0.0362
     14 C         142.0422  140.7035  170.0636 C.ar    1  UNL1        0.0372
     15 BR        142.2669  139.2232  169.9738 Br      1  UNL1       -0.0491
     16 C         136.6539  138.3013  171.1597 C.ar    1  UNL1        0.1931
     17 N         136.7876  136.9388  171.7726 N.ar    1  UNL1       -0.2297
     18 C         135.6986  136.7801  172.7919 C.ar    1  UNL1        0.1067
     19 C         134.8918  138.0445  172.8089 C.ar    1  UNL1        0.0577
     20 S         135.4823  138.9847  171.8002 S.2     1  UNL1       -0.0586
     21 C         140.1857  140.6121  166.8951 C.2     1  UNL1        0.3447
     22 O         139.7660  141.8533  166.1649 O.2     1  UNL1       -0.2450
     23 O         141.4883  139.9486  166.5592 O.3     1  UNL1       -0.4455
     24 C         142.9665  142.0701  166.8128 C.3     1  UNL1        0.0513
     25 C         142.6599  140.7757  166.1195 C.3     1  UNL1        0.2089
     26 C         137.9205  138.7940  166.1444 C.3     0  ACE0        0.1371
     27 N         137.5863  139.8852  165.1710 N.3     1  UNL1       -0.2872
     28 H         137.9096  140.7591  165.5859 H       1  UNL1        0.1240
     29 CA        138.1347  139.8394  163.7756 C.3     1  UNL1        0.0958
     30 C         139.2067  138.8511  163.4231 C.2     1  UNL1        0.0649
     31 O         140.6468  139.2708  163.4346 O.co2   1  UNL1       -0.5478
     32 OXT       138.8387  137.4433  163.0593 O.co2   1  UNL1       -0.5478
     33 CB        137.6112  140.7818  162.7327 C.3     1  UNL1        0.0478
     34 CG        138.1449  142.1812  162.6507 C.ar    1  UNL1       -0.0205
     35 CD1       139.0645  142.5688  161.5308 C.ar    1  UNL1       -0.0042
     36 CE1       139.5982  143.9682  161.4488 C.ar    1  UNL1       -0.0003
     37 CZ        139.2124  144.9801  162.4867 C.ar    1  UNL1       -0.0000
     38 CE2       138.2928  144.5926  163.6066 C.ar    1  UNL1       -0.0003
     39 CD2       137.7590  143.1931  163.6886 C.ar    1  UNL1       -0.0042
@<TRIPOS>UNITY_ATOM_ATTR
31 1
charge -1
@<TRIPOS>BOND
     1    24    25    1
     2    25    23    1
     3    23    21    1
     4    21    22    2
     5    21     1    1
     6     1     2    2
     7     2    26    1
     8    26    27    1
     9    27    29    1
    10    29    33    1
    11    33    34    1
    12    34    35   ar
    13    35    36   ar
    14    36    37   ar
    15    37    38   ar
    16    38    39   ar
    17    29    30    1
    18    30    31   ar
    19    30    32   ar
    20     2     3    1
    21     3     4    1
    22     4    16    1
    23    16    17   ar
    24    17    18   ar
    25    18    19   ar
    26    19    20   ar
    27     4     5    2
    28     5     6    1
    29     6     8    1
    30     8     9   ar
    31     9    10   ar
    32    10    11   ar
    33    11    12    1
    34    11    13   ar
    35    13    14   ar
    36    14    15    1
    37     6     1    1
    38    14     8   ar
    39    39    34   ar
    40    20    16   ar
    41    27    28    1
    42     3     7    1
@<TRIPOS>MOLECULE
*****
 39 42 0 0 0
SMALL
GASTEIGER

@<TRIPOS>ATOM
      1 C         141.7969  142.1293  163.6970 C.2     1  UNL1        0.1397
      2 C         141.4478  143.1583  164.7311 C.2     1  UNL1        0.1353
      3 N         141.2654  142.7506  166.1631 N.pl3   1  UNL1       -0.1998
      4 C         141.4321  141.3140  166.5610 C.2     1  UNL1        0.3442
      5 N         141.7811  140.2851  165.5269 N.2     1  UNL1       -0.0580
      6 C         141.9635  140.6927  164.0949 C.3     1  UNL1        0.2692
      7 H         141.0363  143.4259  166.8418 H       1  UNL1        0.2983
      8 C         142.3126  139.6637  163.0608 C.ar    1  UNL1        0.0371
      9 C         141.2259  138.8827  162.3833 C.ar    1  UNL1        0.0030
     10 C         141.5749  137.8537  161.3492 C.ar    1  UNL1        0.0295
     11 C         143.0107  137.6057  160.9926 C.ar    1  UNL1        0.1406
     12 F         143.3597  136.5767  159.9585 F       1  UNL1       -0.2042
     13 C         144.0974  138.3868  161.6700 C.ar    1  UNL1        0.0362
     14 C         143.7483  139.4158  162.7042 C.ar    1  UNL1        0.0372
     15 BR        144.8350  140.1968  163.3817 Br      1  UNL1       -0.0491
     16 C         141.2497  140.9063  167.9929 C.ar    1  UNL1        0.1931
     17 N         142.2849  140.9982  169.0745 N.ar    1  UNL1       -0.2297
     18 C         141.6751  140.4838  170.3448 C.ar    1  UNL1        0.1067
     19 C         140.2629  140.0741  170.0483 C.ar    1  UNL1        0.0577
     20 S         140.0000  140.3352  168.5947 S.2     1  UNL1       -0.0586
     21 C         141.9793  142.5370  162.2651 C.2     1  UNL1        0.3447
     22 O         143.1655  143.3637  161.8659 O.2     1  UNL1       -0.2450
     23 O         140.9755  142.1180  161.2323 O.3     1  UNL1       -0.4455
     24 C         142.0644  140.8200  159.2626 C.3     1  UNL1        0.0513
     25 C         141.3724  142.0429  159.7877 C.3     1  UNL1        0.2089
     26 C         141.2812  144.5950  164.3333 C.3     0  ACE0        0.1371
     27 N         139.9132  145.2091  164.2962 N.3     1  UNL1       -0.2872
     28 H         140.0415  146.2185  164.3669 H       1  UNL1        0.1240
     29 CA        139.0146  144.9682  163.1194 C.3     1  UNL1        0.0958
     30 C         139.3584  145.5523  161.7813 C.2     1  UNL1        0.0649
     31 O         139.7537  146.9952  161.6720 O.co2   1  UNL1       -0.5478
     32 OXT       139.3069  144.6936  160.5525 O.co2   1  UNL1       -0.5478
     33 CB        137.7723  144.1432  163.2808 C.3     1  UNL1        0.0478
     34 CG        137.8720  142.6503  163.3873 C.ar    1  UNL1       -0.0205
     35 CD1       137.7486  141.8008  162.1571 C.ar    1  UNL1       -0.0042
     36 CE1       137.8483  140.3079  162.2636 C.ar    1  UNL1       -0.0003
     37 CZ        138.0714  139.6645  163.6001 C.ar    1  UNL1       -0.0000
     38 CE2       138.1948  140.5140  164.8301 C.ar    1  UNL1       -0.0003
     39 CD2       138.0951  142.0069  164.7238 C.ar    1  UNL1       -0.0042
@<TRIPOS>UNITY_ATOM_ATTR
31 1
charge -1
@<TRIPOS>BOND
     1    24    25    1
     2    25    23    1
     3    23    21    1
     4    21    22    2
     5    21     1    1
     6     1     2    2
     7     2    26    1
     8    26    27    1
     9    27    29    1
    10    29    33    1
    11    33    34    1
    12    34    35   ar
    13    35    36   ar
    14    36    37   ar
    15    37    38   ar
    16    38    39   ar
    17    29    30    1
    18    30    31   ar
    19    30    32   ar
    20     2     3    1
    21     3     4    1
    22     4    16    1
    23    16    17   ar
    24    17    18   ar
    25    18    19   ar
    26    19    20   ar
    27     4     5    2
    28     5     6    1
    29     6     8    1
    30     8     9   ar
    31     9    10   ar
    32    10    11   ar
    33    11    12    1
    34    11    13   ar
    35    13    14   ar
    36    14    15    1
    37     6     1    1
    38    14     8   ar
    39    39    34   ar
    40    20    16   ar
    41    27    28    1
    42     3     7    1
@<TRIPOS>MOLECULE
*****
 39 42 0 0 0
SMALL
GASTEIGER

@<TRIPOS>ATOM
      1 C         141.6485  140.9627  162.7604 C.2     1  UNL1        0.1397
      2 C         142.3063  141.7019  161.6331 C.2     1  UNL1        0.1353
      3 N         141.5211  142.0448  160.4018 N.pl3   1  UNL1       -0.1998
      4 C         140.0782  141.6486  160.2979 C.2     1  UNL1        0.3442
      5 N         139.4204  140.9094  161.4252 N.2     1  UNL1       -0.0580
      6 C         140.2055  140.5665  162.6565 C.3     1  UNL1        0.2692
      7 H         141.9529  142.5299  159.6619 H       1  UNL1        0.2983
      8 C         139.5476  139.8273  163.7838 C.ar    1  UNL1        0.0371
      9 C         138.7745  140.5813  164.8249 C.ar    1  UNL1        0.0030
     10 C         138.1166  139.8422  165.9522 C.ar    1  UNL1        0.0295
     11 C         138.2319  138.3490  166.0385 C.ar    1  UNL1        0.1406
     12 F         137.5740  137.6100  167.1659 F       1  UNL1       -0.2042
     13 C         139.0051  137.5951  164.9975 C.ar    1  UNL1        0.0362
     14 C         139.6629  138.3343  163.8701 C.ar    1  UNL1        0.0372
     15 BR        140.4361  137.5803  162.8291 Br      1  UNL1       -0.0491
     16 C         139.2930  141.9915  159.0667 C.ar    1  UNL1        0.1931
     17 N         139.4124  143.2559  158.2685 N.ar    1  UNL1       -0.2297
     18 C         138.4438  143.1760  157.1260 C.ar    1  UNL1        0.1067
     19 C         137.7258  141.8623  157.2179 C.ar    1  UNL1        0.0577
     20 S         138.2507  141.1302  158.4173 S.2     1  UNL1       -0.0586
     21 C         142.4336  140.6198  163.9916 C.2     1  UNL1        0.3447
     22 O         143.3894  139.4640  163.9739 O.2     1  UNL1       -0.2450
     23 O         142.2630  141.4328  165.2406 O.3     1  UNL1       -0.4455
     24 C         141.7330  139.5087  166.9040 C.3     1  UNL1        0.0513
     25 C         142.4434  140.7905  166.5841 C.3     1  UNL1        0.2089
     26 C         143.7493  142.0982  161.7369 C.3     0  ACE0        0.1371
     27 N         144.1161  143.5080  162.0944 N.3     1  UNL1       -0.2872
     28 H         143.5358  144.1182  161.5186 H       1  UNL1        0.1240
     29 CA        143.9737  143.9842  163.5097 C.3     1  UNL1        0.0958
     30 C         144.8264  143.3888  164.5906 C.2     1  UNL1        0.0649
     31 O         145.6285  142.1511  164.3169 O.co2   1  UNL1       -0.5478
     32 OXT       144.8769  144.0310  165.9452 O.co2   1  UNL1       -0.5478
     33 CB        142.9788  145.0558  163.8439 C.3     1  UNL1        0.0478
     34 CG        141.5244  144.8499  163.5403 C.ar    1  UNL1       -0.0205
     35 CD1       140.9846  145.1976  162.1846 C.ar    1  UNL1       -0.0042
     36 CE1       139.5302  144.9917  161.8810 C.ar    1  UNL1       -0.0003
     37 CZ        138.6155  144.4381  162.9330 C.ar    1  UNL1       -0.0000
     38 CE2       139.1551  144.0903  164.2886 C.ar    1  UNL1       -0.0003
     39 CD2       140.6096  144.2963  164.5923 C.ar    1  UNL1       -0.0042
@<TRIPOS>UNITY_ATOM_ATTR
31 1
charge -1
@<TRIPOS>BOND
     1    24    25    1
     2    25    23    1
     3    23    21    1
     4    21    22    2
     5    21     1    1
     6     1     2    2
     7     2    26    1
     8    26    27    1
     9    27    29    1
    10    29    33    1
    11    33    34    1
    12    34    35   ar
    13    35    36   ar
    14    36    37   ar
    15    37    38   ar
    16    38    39   ar
    17    29    30    1
    18    30    31   ar
    19    30    32   ar
    20     2     3    1
    21     3     4    1
    22     4    16    1
    23    16    17   ar
    24    17    18   ar
    25    18    19   ar
    26    19    20   ar
    27     4     5    2
    28     5     6    1
    29     6     8    1
    30     8     9   ar
    31     9    10   ar
    32    10    11   ar
    33    11    12    1
    34    11    13   ar
    35    13    14   ar
    36    14    15    1
    37     6     1    1
    38    14     8   ar
    39    39    34   ar
    40    20    16   ar
    41    27    28    1
    42     3     7    1
@<TRIPOS>MOLECULE
*****
 39 42 0 0 0
SMALL
GASTEIGER

@<TRIPOS>ATOM
      1 C         142.1038  140.2304  164.5756 C.2     1  UNL1        0.1397
      2 C         141.9983  140.4176  163.0911 C.2     1  UNL1        0.1353
      3 N         141.3545  141.6530  162.5349 N.pl3   1  UNL1       -0.1998
      4 C         140.8164  142.7012  163.4631 C.2     1  UNL1        0.3442
      5 N         140.9219  142.5139  164.9476 N.2     1  UNL1       -0.0580
      6 C         141.5656  141.2785  165.5039 C.3     1  UNL1        0.2692
      7 H         141.2853  141.7758  161.5605 H       1  UNL1        0.2983
      8 C         141.6712  141.0914  166.9884 C.ar    1  UNL1        0.0371
      9 C         142.8760  141.5980  167.7245 C.ar    1  UNL1        0.0030
     10 C         142.9816  141.4109  169.2090 C.ar    1  UNL1        0.0295
     11 C         141.8823  140.7170  169.9575 C.ar    1  UNL1        0.1406
     12 F         141.9879  140.5299  171.4420 F       1  UNL1       -0.2042
     13 C         140.6775  140.2104  169.2215 C.ar    1  UNL1        0.0362
     14 C         140.5719  140.3976  167.7369 C.ar    1  UNL1        0.0372
     15 BR        139.3671  139.8909  167.0009 Br      1  UNL1       -0.0491
     16 C         140.1726  143.9365  162.9068 C.ar    1  UNL1        0.1931
     17 N         140.8066  144.9103  161.9582 N.ar    1  UNL1       -0.2297
     18 C         139.8077  145.9907  161.6666 C.ar    1  UNL1        0.1067
     19 C         138.5564  145.6846  162.4351 C.ar    1  UNL1        0.0577
     20 S         138.7819  144.4151  163.2015 S.2     1  UNL1       -0.0586
     21 C         142.7475  138.9950  165.1319 C.2     1  UNL1        0.3447
     22 O         144.2333  138.9488  165.3323 O.2     1  UNL1       -0.2450
     23 O         141.9055  137.8058  165.4878 O.3     1  UNL1       -0.4455
     24 C         139.7072  137.5100  164.1349 C.3     1  UNL1        0.0513
     25 C         141.1202  137.0975  164.4240 C.3     1  UNL1        0.2089
     26 C         142.5364  139.3694  162.1628 C.3     0  ACE0        0.1371
     27 N         143.8723  139.5617  161.5082 N.3     1  UNL1       -0.2872
     28 H         143.8841  138.9637  160.6820 H       1  UNL1        0.1240
     29 CA        144.2979  140.9284  161.0597 C.3     1  UNL1        0.0958
     30 C         143.7127  141.5250  159.8140 C.2     1  UNL1        0.0649
     31 O         142.4386  142.3133  159.8869 O.co2   1  UNL1       -0.5478
     32 OXT       144.4016  141.3332  158.4954 O.co2   1  UNL1       -0.5478
     33 CB        145.3086  141.6984  161.8568 C.3     1  UNL1        0.0478
     34 CG        144.8545  142.7148  162.8620 C.ar    1  UNL1       -0.0205
     35 CD1       144.2635  144.0140  162.4005 C.ar    1  UNL1       -0.0042
     36 CE1       143.8094  145.0305  163.4057 C.ar    1  UNL1       -0.0003
     37 CZ        143.9461  144.7478  164.8725 C.ar    1  UNL1       -0.0000
     38 CE2       144.5370  143.4486  165.3340 C.ar    1  UNL1       -0.0003
     39 CD2       144.9912  142.4321  164.3288 C.ar    1  UNL1       -0.0042
@<TRIPOS>UNITY_ATOM_ATTR
31 1
charge -1
@<TRIPOS>BOND
     1    24    25    1
     2    25    23    1
     3    23    21    1
     4    21    22    2
     5    21     1    1
     6     1     2    2
     7     2    26    1
     8    26    27    1
     9    27    29    1
    10    29    33    1
    11    33    34    1
    12    34    35   ar
    13    35    36   ar
    14    36    37   ar
    15    37    38   ar
    16    38    39   ar
    17    29    30    1
    18    30    31   ar
    19    30    32   ar
    20     2     3    1
    21     3     4    1
    22     4    16    1
    23    16    17   ar
    24    17    18   ar
    25    18    19   ar
    26    19    20   ar
    27     4     5    2
    28     5     6    1
    29     6     8    1
    30     8     9   ar
    31     9    10   ar
    32    10    11   ar
    33    11    12    1
    34    11    13   ar
    35    13    14   ar
    36    14    15    1
    37     6     1    1
    38    14     8   ar
    39    39    34   ar
    40    20    16   ar
    41    27    28    1
    42     3     7    1
@<TRIPOS>MOLECULE
*****
 39 42 0 0 0
SMALL
GASTEIGER

@<TRIPOS>ATOM
      1 C         140.9537  141.2886  162.0760 C.2     1  UNL1        0.1397
      2 C         141.3458  142.1031  160.8790 C.2     1  UNL1        0.1353
      3 N         140.4433  142.1602  159.6823 N.pl3   1  UNL1       -0.1998
      4 C         139.1487  141.4027  159.6825 C.2     1  UNL1        0.3442
      5 N         138.7566  140.5882  160.8794 N.2     1  UNL1       -0.0580
      6 C         139.6591  140.5311  162.0762 C.3     1  UNL1        0.2692
      7 H         140.7007  142.6948  158.8966 H       1  UNL1        0.2983
      8 C         139.2669  139.7166  163.2732 C.ar    1  UNL1        0.0371
      9 C         138.4207  140.3267  164.3510 C.ar    1  UNL1        0.0030
     10 C         138.0285  139.5122  165.5480 C.ar    1  UNL1        0.0295
     11 C         138.4826  138.0875  165.6672 C.ar    1  UNL1        0.1406
     12 F         138.0904  137.2730  166.8641 F       1  UNL1       -0.2042
     13 C         139.3288  137.4774  164.5893 C.ar    1  UNL1        0.0362
     14 C         139.7209  138.2919  163.3923 C.ar    1  UNL1        0.0372
     15 BR        140.5671  137.6818  162.3145 Br      1  UNL1       -0.0491
     16 C         138.2461  141.4597  158.4857 C.ar    1  UNL1        0.1931
     17 N         137.3036  140.3813  158.0400 N.ar    1  UNL1       -0.2297
     18 C         136.6026  140.8602  156.8034 C.ar    1  UNL1        0.1067
     19 C         137.1119  142.2347  156.4848 C.ar    1  UNL1        0.0577
     20 S         138.1276  142.6051  157.5245 S.2     1  UNL1       -0.0586
     21 C         141.8563  141.2316  163.2727 C.2     1  UNL1        0.3447
     22 O         141.5773  142.0986  164.4645 O.2     1  UNL1       -0.2450
     23 O         143.0378  140.3076  163.2777 O.3     1  UNL1       -0.4455
     24 C         145.3984  141.3874  163.3855 C.3     1  UNL1        0.0513
     25 C         144.2676  140.6668  164.0578 C.3     1  UNL1        0.2089
     26 C         142.6406  142.8607  160.8787 C.3     0  ACE0        0.1371
     27 N         142.6319  144.3606  160.8867 N.3     1  UNL1       -0.2872
     28 H         142.8327  144.6613  159.9330 H       1  UNL1        0.1240
     29 CA        141.4031  145.1012  161.3246 C.3     1  UNL1        0.0958
     30 C         140.4460  145.6372  160.3015 C.2     1  UNL1        0.0649
     31 O         140.4259  145.0586  158.9176 O.co2   1  UNL1       -0.5478
     32 OXT       139.5091  146.7516  160.6622 O.co2   1  UNL1       -0.5478
     33 CB        141.1314  145.3059  162.7855 C.3     1  UNL1        0.0478
     34 CG        139.8524  144.8047  163.3879 C.ar    1  UNL1       -0.0205
     35 CD1       139.5793  145.0121  164.8482 C.ar    1  UNL1       -0.0042
     36 CE1       138.3003  144.5109  165.4506 C.ar    1  UNL1       -0.0003
     37 CZ        137.2944  143.8023  164.5927 C.ar    1  UNL1       -0.0000
     38 CE2       137.5674  143.5949  163.1325 C.ar    1  UNL1       -0.0003
     39 CD2       138.8465  144.0961  162.5300 C.ar    1  UNL1       -0.0042
@<TRIPOS>UNITY_ATOM_ATTR
31 1
charge -1
@<TRIPOS>BOND
     1    24    25    1
     2    25    23    1
     3    23    21    1
     4    21    22    2
     5    21     1    1
     6     1     2    2
     7     2    26    1
     8    26    27    1
     9    27    29    1
    10    29    33    1
    11    33    34    1
    12    34    35   ar
    13    35    36   ar
    14    36    37   ar
    15    37    38   ar
    16    38    39   ar
    17    29    30    1
    18    30    31   ar
    19    30    32   ar
    20     2     3    1
    21     3     4    1
    22     4    16    1
    23    16    17   ar
    24    17    18   ar
    25    18    19   ar
    26    19    20   ar
    27     4     5    2
    28     5     6    1
    29     6     8    1
    30     8     9   ar
    31     9    10   ar
    32    10    11   ar
    33    11    12    1
    34    11    13   ar
    35    13    14   ar
    36    14    15    1
    37     6     1    1
    38    14     8   ar
    39    39    34   ar
    40    20    16   ar
    41    27    28    1
    42     3     7    1
@<TRIPOS>MOLECULE
*****
 39 42 0 0 0
SMALL
GASTEIGER

@<TRIPOS>ATOM
      1 C         139.2532  140.0509  167.9608 C.2     1  UNL1        0.1397
      2 C         138.1028  139.1612  167.5935 C.2     1  UNL1        0.1353
      3 N         137.2349  138.5756  168.6677 N.pl3   1  UNL1       -0.1998
      4 C         137.5175  138.8796  170.1091 C.2     1  UNL1        0.3442
      5 N         138.6679  139.7693  170.4763 N.2     1  UNL1       -0.0580
      6 C         139.5358  140.3550  169.4022 C.3     1  UNL1        0.2692
      7 H         136.4799  137.9916  168.4266 H       1  UNL1        0.2983
      8 C         140.6863  141.2447  169.7695 C.ar    1  UNL1        0.0371
      9 C         140.4755  142.7230  169.9117 C.ar    1  UNL1        0.0030
     10 C         141.6258  143.6127  170.2790 C.ar    1  UNL1        0.0295
     11 C         142.9871  143.0241  170.5042 C.ar    1  UNL1        0.1406
     12 F         144.1375  143.9139  170.8715 F       1  UNL1       -0.2042
     13 C         143.1979  141.5458  170.3620 C.ar    1  UNL1        0.0362
     14 C         142.0474  140.6561  169.9947 C.ar    1  UNL1        0.0372
     15 BR        142.2582  139.1778  169.8525 Br      1  UNL1       -0.0491
     16 C         136.6496  138.2939  171.1832 C.ar    1  UNL1        0.1931
     17 N         136.7994  136.9315  171.7927 N.ar    1  UNL1       -0.2297
     18 C         135.7219  136.7634  172.8226 C.ar    1  UNL1        0.1067
     19 C         134.9061  138.0219  172.8497 C.ar    1  UNL1        0.0577
     20 S         135.4795  138.9678  171.8365 S.2     1  UNL1       -0.0586
     21 C         140.1211  140.6366  166.8867 C.2     1  UNL1        0.3447
     22 O         139.9883  142.0855  166.5219 O.2     1  UNL1       -0.2450
     23 O         141.1219  139.7734  166.1773 O.3     1  UNL1       -0.4455
     24 C         143.5999  139.0761  165.8265 C.3     1  UNL1        0.0513
     25 C         142.5857  140.0853  166.2769 C.3     1  UNL1        0.2089
     26 C         137.8202  138.8572  166.1521 C.3     0  ACE0        0.1371
     27 N         137.9458  139.9375  165.1191 N.3     1  UNL1       -0.2872
     28 H         138.6770  140.5707  165.4427 H       1  UNL1        0.1240
     29 CA        138.2767  139.5831  163.6996 C.3     1  UNL1        0.0958
     30 C         137.6261  140.3253  162.5701 C.2     1  UNL1        0.0649
     31 O         136.9936  141.6629  162.8173 O.co2   1  UNL1       -0.5478
     32 OXT       137.6080  139.7301  161.1934 O.co2   1  UNL1       -0.5478
     33 CB        139.2583  138.4866  163.4096 C.3     1  UNL1        0.0478
     34 CG        140.6508  138.8245  162.9662 C.ar    1  UNL1       -0.0205
     35 CD1       141.0681  140.2591  162.8327 C.ar    1  UNL1       -0.0042
     36 CE1       142.4606  140.5970  162.3893 C.ar    1  UNL1       -0.0003
     37 CZ        143.4359  139.5003  162.0793 C.ar    1  UNL1       -0.0000
     38 CE2       143.0187  138.0657  162.2128 C.ar    1  UNL1       -0.0003
     39 CD2       141.6261  137.7278  162.6562 C.ar    1  UNL1       -0.0042
@<TRIPOS>UNITY_ATOM_ATTR
31 1
charge -1
@<TRIPOS>BOND
     1    24    25    1
     2    25    23    1
     3    23    21    1
     4    21    22    2
     5    21     1    1
     6     1     2    2
     7     2    26    1
     8    26    27    1
     9    27    29    1
    10    29    33    1
    11    33    34    1
    12    34    35   ar
    13    35    36   ar
    14    36    37   ar
    15    37    38   ar
    16    38    39   ar
    17    29    30    1
    18    30    31   ar
    19    30    32   ar
    20     2     3    1
    21     3     4    1
    22     4    16    1
    23    16    17   ar
    24    17    18   ar
    25    18    19   ar
    26    19    20   ar
    27     4     5    2
    28     5     6    1
    29     6     8    1
    30     8     9   ar
    31     9    10   ar
    32    10    11   ar
    33    11    12    1
    34    11    13   ar
    35    13    14   ar
    36    14    15    1
    37     6     1    1
    38    14     8   ar
    39    39    34   ar
    40    20    16   ar
    41    27    28    1
    42     3     7    1
@<TRIPOS>MOLECULE
*****
 39 42 0 0 0
SMALL
GASTEIGER

@<TRIPOS>ATOM
      1 C         139.7740  140.9495  165.1152 C.2     1  UNL1        0.1397
      2 C         139.1028  140.7912  163.7831 C.2     1  UNL1        0.1353
      3 N         139.1133  141.9231  162.7988 N.pl3   1  UNL1       -0.1998
      4 C         139.7948  143.2132  163.1466 C.2     1  UNL1        0.3442
      5 N         140.4659  143.3715  164.4787 N.2     1  UNL1       -0.0580
      6 C         140.4555  142.2397  165.4630 C.3     1  UNL1        0.2692
      7 H         138.6728  141.8192  161.9245 H       1  UNL1        0.2983
      8 C         141.1267  142.3980  166.7951 C.ar    1  UNL1        0.0371
      9 C         140.3320  142.8426  167.9871 C.ar    1  UNL1        0.0030
     10 C         141.0031  143.0010  169.3192 C.ar    1  UNL1        0.0295
     11 C         142.4689  142.7147  169.4594 C.ar    1  UNL1        0.1406
     12 F         143.1400  142.8731  170.7914 F       1  UNL1       -0.2042
     13 C         143.2636  142.2701  168.2673 C.ar    1  UNL1        0.0362
     14 C         142.5924  142.1118  166.9352 C.ar    1  UNL1        0.0372
     15 BR        143.3870  141.6671  165.7432 Br      1  UNL1       -0.0491
     16 C         139.8053  144.3450  162.1623 C.ar    1  UNL1        0.1931
     17 N         139.0749  145.6471  162.3081 N.ar    1  UNL1       -0.2297
     18 C         139.3662  146.4803  161.0953 C.ar    1  UNL1        0.1067
     19 C         140.2765  145.6932  160.1999 C.ar    1  UNL1        0.0577
     20 S         140.5479  144.3736  160.8593 S.2     1  UNL1       -0.0586
     21 C         139.7635  139.8177  166.0995 C.2     1  UNL1        0.3447
     22 O         138.5079  139.4892  166.8513 O.2     1  UNL1       -0.2450
     23 O         141.0087  139.0144  166.3319 O.3     1  UNL1       -0.4455
     24 C         140.9521  137.1352  164.5386 C.3     1  UNL1        0.0513
     25 C         141.6566  138.2880  165.1906 C.3     1  UNL1        0.2089
     26 C         138.4212  139.5010  163.4352 C.3     0  ACE0        0.1371
     27 N         137.8179  139.3146  162.0747 N.3     1  UNL1       -0.2872
     28 H         137.1792  140.0959  161.9263 H       1  UNL1        0.1240
     29 CA        138.7025  139.2427  160.8653 C.3     1  UNL1        0.0958
     30 C         138.4634  140.1634  159.7055 C.2     1  UNL1        0.0649
     31 O         138.2786  141.6334  159.9404 O.co2   1  UNL1       -0.5478
     32 OXT       138.4091  139.6141  158.3108 O.co2   1  UNL1       -0.5478
     33 CB        139.8260  138.2502  160.8159 C.3     1  UNL1        0.0478
     34 CG        141.2257  138.6854  161.1345 C.ar    1  UNL1       -0.0205
     35 CD1       141.5331  140.1410  161.3268 C.ar    1  UNL1       -0.0042
     36 CE1       142.9327  140.5762  161.6454 C.ar    1  UNL1       -0.0003
     37 CZ        144.0250  139.5559  161.7718 C.ar    1  UNL1       -0.0000
     38 CE2       143.7176  138.1004  161.5796 C.ar    1  UNL1       -0.0003
     39 CD2       142.3179  137.6651  161.2609 C.ar    1  UNL1       -0.0042
@<TRIPOS>UNITY_ATOM_ATTR
31 1
charge -1
@<TRIPOS>BOND
     1    24    25    1
     2    25    23    1
     3    23    21    1
     4    21    22    2
     5    21     1    1
     6     1     2    2
     7     2    26    1
     8    26    27    1
     9    27    29    1
    10    29    33    1
    11    33    34    1
    12    34    35   ar
    13    35    36   ar
    14    36    37   ar
    15    37    38   ar
    16    38    39   ar
    17    29    30    1
    18    30    31   ar
    19    30    32   ar
    20     2     3    1
    21     3     4    1
    22     4    16    1
    23    16    17   ar
    24    17    18   ar
    25    18    19   ar
    26    19    20   ar
    27     4     5    2
    28     5     6    1
    29     6     8    1
    30     8     9   ar
    31     9    10   ar
    32    10    11   ar
    33    11    12    1
    34    11    13   ar
    35    13    14   ar
    36    14    15    1
    37     6     1    1
    38    14     8   ar
    39    39    34   ar
    40    20    16   ar
    41    27    28    1
    42     3     7    1
