@<TRIPOS>MOLECULE
*****
 28 31 0 0 0
SMALL
GASTEIGER

@<TRIPOS>ATOM
      1 C         139.9900  140.9358  167.2758 C.ar    1  UNL1       -0.0001
      2 C         139.1522  140.0348  166.4178 C.ar    1  UNL1       -0.0003
      3 C         138.5658  140.5509  165.1372 C.ar    1  UNL1       -0.0032
      4 C         138.8172  141.9679  164.7147 C.ar    1  UNL1       -0.0088
      5 C         139.6550  142.8690  165.5726 C.ar    1  UNL1       -0.0088
      6 C         140.2414  142.3529  166.8532 C.ar    1  UNL1       -0.0032
      7 C         139.7299  144.2090  164.9026 C.3     1  UNL1        0.0991
      8 N         138.9385  144.1361  163.6305 N.3     1  UNL1       -0.2649
      9 C         138.3743  142.7510  163.5144 C.3     1  UNL1        0.0991
     10 C         141.6379  141.2070  169.2660 C.2     1  UNL1        0.0598
     11 C         140.5764  140.4198  168.5563 C.2     1  UNL1        0.0047
     12 O         141.5452  140.9796  171.8524 O.2     1  UNL1       -0.2681
     13 C         142.2243  140.6909  170.5465 C.2     1  UNL1        0.2679
     14 N         143.4899  139.8861  170.5211 N.am    1  UNL1       -0.1934
     15 O         144.0764  139.3701  171.8017 O.3     1  UNL1       -0.2949
     16 H         143.9357  139.6966  169.6640 H       1  UNL1        0.1825
     17 H         143.5182  139.6437  172.5463 H       1  UNL1        0.2414
     18 C         138.7450  145.2522  162.6472 C.3     1  UNL1        0.0774
     19 C         139.9360  145.9112  162.0169 C.3     1  UNL1        0.0453
     20 C         141.0460  145.0740  161.4541 C.2     1  UNL1       -0.0005
     21 C         141.1753  144.6239  160.0291 C.2     1  UNL1        0.0942
     22 N         142.4309  143.8116  159.9118 N.2     1  UNL1       -0.2482
     23 C         143.0775  143.7598  161.2642 C.2     1  UNL1        0.0631
     24 C         144.3352  143.1029  161.7510 C.3     1  UNL1        0.0717
     25 C         144.7369  143.2263  163.1909 C.2     1  UNL1       -0.0198
     26 C         143.8809  144.0066  164.1441 C.2     1  UNL1       -0.0042
     27 C         142.6234  144.6634  163.6574 C.2     1  UNL1        0.0006
     28 C         142.2216  144.5400  162.2174 C.2     1  UNL1        0.0114
@<TRIPOS>BOND
     1    12    13    2
     2    13    10    1
     3    10    11    2
     4    11     1    1
     5     1     2   ar
     6     2     3   ar
     7     3     4   ar
     8     4     5   ar
     9     5     6   ar
    10     5     7    1
    11     7     8    1
    12     8    18    1
    13    18    19    1
    14    19    20    1
    15    20    21    2
    16    21    22    1
    17    22    23    2
    18    23    24    1
    19    24    25    1
    20    25    26    2
    21    26    27    1
    22    27    28    2
    23     8     9    1
    24    13    14   am
    25    14    15    1
    26     6     1   ar
    27    28    20    1
    28     9     4    1
    29    28    23    1
    30    14    16    1
    31    15    17    1
@<TRIPOS>MOLECULE
*****
 28 31 0 0 0
SMALL
GASTEIGER

@<TRIPOS>ATOM
      1 C         138.6699  139.4612  165.9937 C.ar    1  UNL1       -0.0001
      2 C         138.7833  138.1946  165.1982 C.ar    1  UNL1       -0.0003
      3 C         138.8403  138.2522  163.7004 C.ar    1  UNL1       -0.0032
      4 C         138.7838  139.5764  162.9980 C.ar    1  UNL1       -0.0088
      5 C         138.6704  140.8430  163.7935 C.ar    1  UNL1       -0.0088
      6 C         138.6135  140.7854  165.2914 C.ar    1  UNL1       -0.0032
      7 C         138.6356  141.9932  162.8313 C.3     1  UNL1        0.0991
      8 N         138.7275  141.4375  161.4411 N.3     1  UNL1       -0.2649
      9 C         138.8191  139.9438  161.5442 C.3     1  UNL1        0.0991
     10 C         139.5223  140.2709  168.3105 C.2     1  UNL1        0.0598
     11 C         138.6130  139.4036  167.4915 C.2     1  UNL1        0.0047
     12 O         138.1855  139.8411  170.4964 O.2     1  UNL1       -0.2681
     13 C         139.4653  140.2133  169.8083 C.2     1  UNL1        0.2679
     14 N         140.6883  140.5279  170.6180 N.am    1  UNL1       -0.1934
     15 O         140.6314  140.4702  172.1158 O.3     1  UNL1       -0.2949
     16 H         141.5283  140.7721  170.1664 H       1  UNL1        0.1825
     17 H         139.7381  140.2161  172.3959 H       1  UNL1        0.2414
     18 C         138.7278  142.2353  160.1708 C.3     1  UNL1        0.0774
     19 C         139.6165  143.4365  160.0398 C.3     1  UNL1        0.0453
     20 C         141.0649  143.3428  160.4183 C.2     1  UNL1       -0.0005
     21 C         142.1227  142.5814  159.6757 C.2     1  UNL1        0.0942
     22 N         143.4214  142.7620  160.4043 N.2     1  UNL1       -0.2482
     23 C         143.1662  143.6349  161.5971 C.2     1  UNL1        0.0631
     24 C         144.0719  144.1493  162.6765 C.3     1  UNL1        0.0717
     25 C         143.5212  145.0227  163.7646 C.2     1  UNL1       -0.0198
     26 C         142.0648  145.3816  163.7732 C.2     1  UNL1       -0.0042
     27 C         141.1592  144.8672  162.6939 C.2     1  UNL1        0.0006
     28 C         141.7099  143.9938  161.6057 C.2     1  UNL1        0.0114
@<TRIPOS>BOND
     1    12    13    2
     2    13    10    1
     3    10    11    2
     4    11     1    1
     5     1     2   ar
     6     2     3   ar
     7     3     4   ar
     8     4     5   ar
     9     5     6   ar
    10     5     7    1
    11     7     8    1
    12     8    18    1
    13    18    19    1
    14    19    20    1
    15    20    21    2
    16    21    22    1
    17    22    23    2
    18    23    24    1
    19    24    25    1
    20    25    26    2
    21    26    27    1
    22    27    28    2
    23     8     9    1
    24    13    14   am
    25    14    15    1
    26     6     1   ar
    27    28    20    1
    28     9     4    1
    29    28    23    1
    30    14    16    1
    31    15    17    1
@<TRIPOS>MOLECULE
*****
 28 31 0 0 0
SMALL
GASTEIGER

@<TRIPOS>ATOM
      1 C         142.4759  139.1146  166.3302 C.ar    1  UNL1       -0.0001
      2 C         143.5744  138.9715  165.3189 C.ar    1  UNL1       -0.0003
      3 C         143.2393  138.7426  163.8748 C.ar    1  UNL1       -0.0032
      4 C         141.8057  138.6568  163.4421 C.ar    1  UNL1       -0.0088
      5 C         140.7072  138.7999  164.4534 C.ar    1  UNL1       -0.0088
      6 C         141.0423  139.0288  165.8974 C.ar    1  UNL1       -0.0032
      7 C         139.3964  138.6713  163.7353 C.3     1  UNL1        0.0991
      8 N         139.6849  138.4487  162.2803 N.3     1  UNL1       -0.2649
      9 C         141.1739  138.4397  162.0990 C.3     1  UNL1        0.0991
     10 C         142.1659  140.4710  168.5242 C.2     1  UNL1        0.0598
     11 C         142.8110  139.3435  167.7742 C.2     1  UNL1        0.0047
     12 O         143.4635  139.7872  170.6687 O.2     1  UNL1       -0.2681
     13 C         142.5011  140.6999  169.9683 C.2     1  UNL1        0.2679
     14 N         141.8737  141.8417  170.7120 N.am    1  UNL1       -0.1934
     15 O         142.2088  142.0706  172.1560 O.3     1  UNL1       -0.2949
     16 H         141.2420  142.4407  170.2523 H       1  UNL1        0.1825
     17 H         142.8407  141.3968  172.4521 H       1  UNL1        0.2414
     18 C         138.6637  138.2670  161.1967 C.3     1  UNL1        0.0774
     19 C         137.6018  139.3052  160.9851 C.3     1  UNL1        0.0453
     20 C         137.9699  140.7589  160.9537 C.2     1  UNL1       -0.0005
     21 C         138.4434  141.5228  159.7527 C.2     1  UNL1        0.0942
     22 N         138.6953  142.9401  160.1747 N.2     1  UNL1       -0.2482
     23 C         138.3774  143.0521  161.6363 C.2     1  UNL1        0.0631
     24 C         138.4382  144.2074  162.5910 C.3     1  UNL1        0.0717
     25 C         138.0507  144.0147  164.0272 C.2     1  UNL1       -0.0198
     26 C         137.6024  142.6667  164.5087 C.2     1  UNL1       -0.0042
     27 C         137.5416  141.5114  163.5540 C.2     1  UNL1        0.0006
     28 C         137.9291  141.7040  162.1177 C.2     1  UNL1        0.0114
@<TRIPOS>BOND
     1    12    13    2
     2    13    10    1
     3    10    11    2
     4    11     1    1
     5     1     2   ar
     6     2     3   ar
     7     3     4   ar
     8     4     5   ar
     9     5     6   ar
    10     5     7    1
    11     7     8    1
    12     8    18    1
    13    18    19    1
    14    19    20    1
    15    20    21    2
    16    21    22    1
    17    22    23    2
    18    23    24    1
    19    24    25    1
    20    25    26    2
    21    26    27    1
    22    27    28    2
    23     8     9    1
    24    13    14   am
    25    14    15    1
    26     6     1   ar
    27    28    20    1
    28     9     4    1
    29    28    23    1
    30    14    16    1
    31    15    17    1
@<TRIPOS>MOLECULE
*****
 28 31 0 0 0
SMALL
GASTEIGER

@<TRIPOS>ATOM
      1 C         139.4050  139.4451  166.4119 C.ar    1  UNL1       -0.0001
      2 C         138.2601  139.5391  165.4473 C.ar    1  UNL1       -0.0003
      3 C         138.4651  139.1883  164.0034 C.ar    1  UNL1       -0.0032
      4 C         139.8151  138.7435  163.5241 C.ar    1  UNL1       -0.0088
      5 C         140.9599  138.6496  164.4886 C.ar    1  UNL1       -0.0088
      6 C         140.7549  139.0004  165.9325 C.ar    1  UNL1       -0.0032
      7 C         142.1677  138.1837  163.7306 C.3     1  UNL1        0.0991
      8 N         141.7691  137.9897  162.2976 N.3     1  UNL1       -0.2649
      9 C         140.3152  138.3357  162.1700 C.3     1  UNL1        0.0991
     10 C         140.3717  140.1883  168.7060 C.2     1  UNL1        0.0598
     11 C         139.1999  139.7959  167.8558 C.2     1  UNL1        0.0047
     12 O         139.3773  139.6246  171.0391 O.2     1  UNL1       -0.2681
     13 C         140.1666  140.5391  170.1499 C.2     1  UNL1        0.2679
     14 N         140.7509  141.8044  170.7046 N.am    1  UNL1       -0.1934
     15 O         140.5459  142.1552  172.1485 O.3     1  UNL1       -0.2949
     16 H         141.2690  142.4046  170.1210 H       1  UNL1        0.1825
     17 H         140.0182  141.4636  172.5775 H       1  UNL1        0.2414
     18 C         142.6669  137.5304  161.1872 C.3     1  UNL1        0.0774
     19 C         143.9638  138.2388  160.9296 C.3     1  UNL1        0.0453
     20 C         143.9943  139.7351  160.8302 C.2     1  UNL1       -0.0005
     21 C         143.6632  140.5446  159.6115 C.2     1  UNL1        0.0942
     22 N         143.8255  141.9945  159.9601 N.2     1  UNL1       -0.2482
     23 C         144.2567  142.0811  161.3941 C.2     1  UNL1        0.0631
     24 C         144.5679  143.2510  162.2798 C.3     1  UNL1        0.0717
     25 C         144.9833  143.0245  163.7032 C.2     1  UNL1       -0.0198
     26 C         145.0876  141.6281  164.2409 C.2     1  UNL1       -0.0042
     27 C         144.7765  140.4582  163.3553 C.2     1  UNL1        0.0006
     28 C         144.3610  140.6846  161.9318 C.2     1  UNL1        0.0114
@<TRIPOS>BOND
     1    12    13    2
     2    13    10    1
     3    10    11    2
     4    11     1    1
     5     1     2   ar
     6     2     3   ar
     7     3     4   ar
     8     4     5   ar
     9     5     6   ar
    10     5     7    1
    11     7     8    1
    12     8    18    1
    13    18    19    1
    14    19    20    1
    15    20    21    2
    16    21    22    1
    17    22    23    2
    18    23    24    1
    19    24    25    1
    20    25    26    2
    21    26    27    1
    22    27    28    2
    23     8     9    1
    24    13    14   am
    25    14    15    1
    26     6     1   ar
    27    28    20    1
    28     9     4    1
    29    28    23    1
    30    14    16    1
    31    15    17    1
@<TRIPOS>MOLECULE
*****
 28 31 0 0 0
SMALL
GASTEIGER

@<TRIPOS>ATOM
      1 C         139.1056  139.5210  166.4462 C.ar    1  UNL1       -0.0001
      2 C         138.7511  138.1725  165.8932 C.ar    1  UNL1       -0.0003
      3 C         138.8833  137.9063  164.4229 C.ar    1  UNL1       -0.0032
      4 C         139.3701  138.9887  163.5056 C.ar    1  UNL1       -0.0088
      5 C         139.7246  140.3372  164.0586 C.ar    1  UNL1       -0.0088
      6 C         139.5923  140.6034  165.5288 C.ar    1  UNL1       -0.0032
      7 C         140.1741  141.2022  162.9184 C.3     1  UNL1        0.0991
      8 N         140.0973  140.3882  161.6609 N.3     1  UNL1       -0.2649
      9 C         139.6005  139.0202  162.0238 C.3     1  UNL1        0.0991
     10 C         140.1418  140.3222  168.6898 C.2     1  UNL1        0.0598
     11 C         138.9733  139.7871  167.9164 C.2     1  UNL1        0.0047
     12 O         139.3750  139.5642  171.0536 O.2     1  UNL1       -0.2681
     13 C         140.0096  140.5884  170.1601 C.2     1  UNL1        0.2679
     14 N         140.5119  141.8788  170.7369 N.am    1  UNL1       -0.1934
     15 O         140.3797  142.1449  172.2071 O.3     1  UNL1       -0.2949
     16 H         140.9284  142.5510  170.1504 H       1  UNL1        0.1825
     17 H         139.9510  141.3876  172.6355 H       1  UNL1        0.2414
     18 C         140.4548  140.8595  160.2823 C.3     1  UNL1        0.0774
     19 C         141.8678  140.7430  159.7928 C.3     1  UNL1        0.0453
     20 C         142.9816  141.3992  160.5535 C.2     1  UNL1       -0.0005
     21 C         143.6067  142.7246  160.2332 C.2     1  UNL1        0.0942
     22 N         144.6774  142.9898  161.2499 N.2     1  UNL1       -0.2482
     23 C         144.7138  141.8284  162.1984 C.2     1  UNL1        0.0631
     24 C         145.5660  141.5389  163.3984 C.3     1  UNL1        0.0717
     25 C         145.3701  140.2664  164.1680 C.2     1  UNL1       -0.0198
     26 C         144.3220  139.2834  163.7376 C.2     1  UNL1       -0.0042
     27 C         143.4699  139.5728  162.5377 C.2     1  UNL1        0.0006
     28 C         143.6658  140.8454  161.7680 C.2     1  UNL1        0.0114
@<TRIPOS>BOND
     1    12    13    2
     2    13    10    1
     3    10    11    2
     4    11     1    1
     5     1     2   ar
     6     2     3   ar
     7     3     4   ar
     8     4     5   ar
     9     5     6   ar
    10     5     7    1
    11     7     8    1
    12     8    18    1
    13    18    19    1
    14    19    20    1
    15    20    21    2
    16    21    22    1
    17    22    23    2
    18    23    24    1
    19    24    25    1
    20    25    26    2
    21    26    27    1
    22    27    28    2
    23     8     9    1
    24    13    14   am
    25    14    15    1
    26     6     1   ar
    27    28    20    1
    28     9     4    1
    29    28    23    1
    30    14    16    1
    31    15    17    1
@<TRIPOS>MOLECULE
*****
 28 31 0 0 0
SMALL
GASTEIGER

@<TRIPOS>ATOM
      1 C         139.9563  140.1113  168.1289 C.ar    1  UNL1       -0.0001
      2 C         138.5823  139.5099  168.1156 C.ar    1  UNL1       -0.0003
      3 C         138.0901  138.7910  166.8946 C.ar    1  UNL1       -0.0032
      4 C         138.9719  138.6735  165.6869 C.ar    1  UNL1       -0.0088
      5 C         140.3459  139.2750  165.7002 C.ar    1  UNL1       -0.0088
      6 C         140.8381  139.9939  166.9213 C.ar    1  UNL1       -0.0032
      7 C         140.9845  139.0017  164.3707 C.3     1  UNL1        0.0991
      8 N         140.0051  138.2312  163.5357 N.3     1  UNL1       -0.2649
      9 C         138.7612  138.0284  164.3492 C.3     1  UNL1        0.0991
     10 C         141.5987  141.7872  169.2442 C.2     1  UNL1        0.0598
     11 C         140.4485  140.8303  169.3500 C.2     1  UNL1        0.0047
     12 O         141.4686  142.2278  171.8014 O.2     1  UNL1       -0.2681
     13 C         142.0909  142.5061  170.4652 C.2     1  UNL1        0.2679
     14 N         143.2055  143.5034  170.3501 N.am    1  UNL1       -0.1934
     15 O         143.6977  144.2223  171.5711 O.3     1  UNL1       -0.2949
     16 H         143.6139  143.6861  169.4732 H       1  UNL1        0.1825
     17 H         143.1924  143.9283  172.3452 H       1  UNL1        0.2414
     18 C         140.2301  137.7483  162.1335 C.3     1  UNL1        0.0774
     19 C         139.7415  138.5627  160.9724 C.3     1  UNL1        0.0453
     20 C         139.9503  140.0480  160.9574 C.2     1  UNL1       -0.0005
     21 C         141.0194  140.7804  160.2020 C.2     1  UNL1        0.0942
     22 N         140.8565  142.2467  160.4729 N.2     1  UNL1       -0.2482
     23 C         139.6868  142.4205  161.3955 C.2     1  UNL1        0.0631
     24 C         139.0592  143.6406  162.0018 C.3     1  UNL1        0.0717
     25 C         137.8716  143.5018  162.9075 C.2     1  UNL1       -0.0198
     26 C         137.3115  142.1429  163.2069 C.2     1  UNL1       -0.0042
     27 C         137.9390  140.9229  162.6007 C.2     1  UNL1        0.0006
     28 C         139.1267  141.0616  161.6950 C.2     1  UNL1        0.0114
@<TRIPOS>BOND
     1    12    13    2
     2    13    10    1
     3    10    11    2
     4    11     1    1
     5     1     2   ar
     6     2     3   ar
     7     3     4   ar
     8     4     5   ar
     9     5     6   ar
    10     5     7    1
    11     7     8    1
    12     8    18    1
    13    18    19    1
    14    19    20    1
    15    20    21    2
    16    21    22    1
    17    22    23    2
    18    23    24    1
    19    24    25    1
    20    25    26    2
    21    26    27    1
    22    27    28    2
    23     8     9    1
    24    13    14   am
    25    14    15    1
    26     6     1   ar
    27    28    20    1
    28     9     4    1
    29    28    23    1
    30    14    16    1
    31    15    17    1
@<TRIPOS>MOLECULE
*****
 28 31 0 0 0
SMALL
GASTEIGER

@<TRIPOS>ATOM
      1 C         142.8430  141.8118  166.4443 C.ar    1  UNL1       -0.0001
      2 C         143.7150  142.7857  165.7088 C.ar    1  UNL1       -0.0003
      3 C         144.3175  142.4046  164.3890 C.ar    1  UNL1       -0.0032
      4 C         144.0480  141.0497  163.8048 C.ar    1  UNL1       -0.0088
      5 C         143.1759  140.0758  164.5403 C.ar    1  UNL1       -0.0088
      6 C         142.5735  140.4569  165.8601 C.ar    1  UNL1       -0.0032
      7 C         143.0892  138.8215  163.7222 C.3     1  UNL1        0.0991
      8 N         143.9077  139.0203  162.4810 N.3     1  UNL1       -0.2649
      9 C         144.5002  140.3973  162.5320 C.3     1  UNL1        0.0991
     10 C         143.0777  142.1599  169.0082 C.2     1  UNL1        0.0598
     11 C         142.2405  142.1929  167.7641 C.2     1  UNL1        0.0047
     12 O         143.0201  143.7118  171.0911 O.2     1  UNL1       -0.2681
     13 C         142.4752  142.5410  170.3280 C.2     1  UNL1        0.2679
     14 N         141.3279  141.7511  170.8847 N.am    1  UNL1       -0.1934
     15 O         140.7254  142.1322  172.2045 O.3     1  UNL1       -0.2949
     16 H         140.9703  140.9827  170.3839 H       1  UNL1        0.1825
     17 H         141.1912  142.9045  172.5616 H       1  UNL1        0.2414
     18 C         144.0999  138.0179  161.3816 C.3     1  UNL1        0.0774
     19 C         142.9413  137.6254  160.5136 C.3     1  UNL1        0.0453
     20 C         141.8187  138.5921  160.2788 C.2     1  UNL1       -0.0005
     21 C         141.8130  139.7106  159.2794 C.2     1  UNL1        0.0942
     22 N         140.4954  140.4198  159.3852 N.2     1  UNL1       -0.2482
     23 C         139.6870  139.7396  160.4499 C.2     1  UNL1        0.0631
     24 C         138.3117  140.0028  160.9879 C.3     1  UNL1        0.0717
     25 C         137.7543  139.1364  162.0781 C.2     1  UNL1       -0.0198
     26 C         138.5722  138.0068  162.6304 C.2     1  UNL1       -0.0042
     27 C         139.9474  137.7436  162.0925 C.2     1  UNL1        0.0006
     28 C         140.5048  138.6100  161.0022 C.2     1  UNL1        0.0114
@<TRIPOS>BOND
     1    12    13    2
     2    13    10    1
     3    10    11    2
     4    11     1    1
     5     1     2   ar
     6     2     3   ar
     7     3     4   ar
     8     4     5   ar
     9     5     6   ar
    10     5     7    1
    11     7     8    1
    12     8    18    1
    13    18    19    1
    14    19    20    1
    15    20    21    2
    16    21    22    1
    17    22    23    2
    18    23    24    1
    19    24    25    1
    20    25    26    2
    21    26    27    1
    22    27    28    2
    23     8     9    1
    24    13    14   am
    25    14    15    1
    26     6     1   ar
    27    28    20    1
    28     9     4    1
    29    28    23    1
    30    14    16    1
    31    15    17    1
@<TRIPOS>MOLECULE
*****
 28 31 0 0 0
SMALL
GASTEIGER

@<TRIPOS>ATOM
      1 C         141.8042  142.1719  166.9969 C.ar    1  UNL1       -0.0001
      2 C         143.1678  142.1898  166.3724 C.ar    1  UNL1       -0.0003
      3 C         143.3969  142.9379  165.0926 C.ar    1  UNL1       -0.0032
      4 C         142.2624  143.6681  164.4373 C.ar    1  UNL1       -0.0088
      5 C         140.8987  143.6503  165.0618 C.ar    1  UNL1       -0.0088
      6 C         140.6696  142.9022  166.3416 C.ar    1  UNL1       -0.0032
      7 C         139.9800  144.4565  164.1922 C.3     1  UNL1        0.0991
      8 N         140.7760  144.9726  163.0303 N.3     1  UNL1       -0.2649
      9 C         142.1865  144.4854  163.1818 C.3     1  UNL1        0.0991
     10 C         140.5424  141.9052  169.2522 C.2     1  UNL1        0.0598
     11 C         141.5751  141.4238  168.2767 C.2     1  UNL1        0.0047
     12 O         140.5839  141.8228  171.8486 O.2     1  UNL1       -0.2681
     13 C         140.3133  141.1571  170.5320 C.2     1  UNL1        0.2679
     14 N         139.8135  139.7432  170.4951 N.am    1  UNL1       -0.1934
     15 O         139.5844  138.9951  171.7749 O.3     1  UNL1       -0.2949
     16 H         139.6359  139.3063  169.6310 H       1  UNL1        0.1825
     17 H         139.8062  139.5659  172.5272 H       1  UNL1        0.2414
     18 C         140.2532  145.8262  161.9131 C.3     1  UNL1        0.0774
     19 C         140.0587  145.2373  160.5473 C.3     1  UNL1        0.0453
     20 C         140.2009  143.7584  160.3409 C.2     1  UNL1       -0.0005
     21 C         141.2429  143.0817  159.5004 C.2     1  UNL1        0.0942
     22 N         141.0121  141.6016  159.5790 N.2     1  UNL1       -0.2482
     23 C         139.8276  141.3637  160.4679 C.2     1  UNL1        0.0631
     24 C         139.1406  140.1054  160.9095 C.3     1  UNL1        0.0717
     25 C         137.9524  140.1802  161.8219 C.2     1  UNL1       -0.0198
     26 C         137.4512  141.5132  162.2928 C.2     1  UNL1       -0.0042
     27 C         138.1380  142.7714  161.8513 C.2     1  UNL1        0.0006
     28 C         139.3263  142.6967  160.9388 C.2     1  UNL1        0.0114
@<TRIPOS>BOND
     1    12    13    2
     2    13    10    1
     3    10    11    2
     4    11     1    1
     5     1     2   ar
     6     2     3   ar
     7     3     4   ar
     8     4     5   ar
     9     5     6   ar
    10     5     7    1
    11     7     8    1
    12     8    18    1
    13    18    19    1
    14    19    20    1
    15    20    21    2
    16    21    22    1
    17    22    23    2
    18    23    24    1
    19    24    25    1
    20    25    26    2
    21    26    27    1
    22    27    28    2
    23     8     9    1
    24    13    14   am
    25    14    15    1
    26     6     1   ar
    27    28    20    1
    28     9     4    1
    29    28    23    1
    30    14    16    1
    31    15    17    1
@<TRIPOS>MOLECULE
*****
 28 31 0 0 0
SMALL
GASTEIGER

@<TRIPOS>ATOM
      1 C         140.1924  144.6281  162.0341 C.ar    1  UNL1       -0.0001
      2 C         140.8485  145.0449  163.3170 C.ar    1  UNL1       -0.0003
      3 C         140.7019  144.1958  164.5448 C.ar    1  UNL1       -0.0032
      4 C         139.8991  142.9300  164.4898 C.ar    1  UNL1       -0.0088
      5 C         139.2429  142.5132  163.2070 C.ar    1  UNL1       -0.0088
      6 C         139.3895  143.3623  161.9791 C.ar    1  UNL1       -0.0032
      7 C         138.5187  141.2230  163.4545 C.3     1  UNL1        0.0991
      8 N         138.7274  140.8425  164.8903 N.3     1  UNL1       -0.2649
      9 C         139.5805  141.8974  165.5302 C.3     1  UNL1        0.0991
     10 C         141.0315  144.9292  159.5938 C.2     1  UNL1        0.0598
     11 C         140.3390  145.4772  160.8063 C.2     1  UNL1        0.0047
     12 O         142.5426  146.1840  157.8933 O.2     1  UNL1       -0.2681
     13 C         141.1781  145.7783  158.3660 C.2     1  UNL1        0.2679
     14 N         139.9602  146.2217  157.6109 N.am    1  UNL1       -0.1934
     15 O         140.1069  147.0707  156.3831 O.3     1  UNL1       -0.2949
     16 H         139.0646  145.9554  157.9211 H       1  UNL1        0.1825
     17 H         141.0475  147.2405  156.2178 H       1  UNL1        0.2414
     18 C         138.1792  139.6214  165.5675 C.3     1  UNL1        0.0774
     19 C         138.8311  138.2878  165.3518 C.3     1  UNL1        0.0453
     20 C         139.8585  138.1212  164.2717 C.2     1  UNL1       -0.0005
     21 C         139.6291  137.5021  162.9248 C.2     1  UNL1        0.0942
     22 N         140.9245  137.5426  162.1695 N.2     1  UNL1       -0.2482
     23 C         141.9543  138.1867  163.0496 C.2     1  UNL1        0.0631
     24 C         143.4069  138.4938  162.8359 C.3     1  UNL1        0.0717
     25 C         144.2006  139.1584  163.9213 C.2     1  UNL1       -0.0198
     26 C         143.5417  139.5160  165.2205 C.2     1  UNL1       -0.0042
     27 C         142.0892  139.2089  165.4343 C.2     1  UNL1        0.0006
     28 C         141.2954  138.5442  164.3488 C.2     1  UNL1        0.0114
@<TRIPOS>BOND
     1    12    13    2
     2    13    10    1
     3    10    11    2
     4    11     1    1
     5     1     2   ar
     6     2     3   ar
     7     3     4   ar
     8     4     5   ar
     9     5     6   ar
    10     5     7    1
    11     7     8    1
    12     8    18    1
    13    18    19    1
    14    19    20    1
    15    20    21    2
    16    21    22    1
    17    22    23    2
    18    23    24    1
    19    24    25    1
    20    25    26    2
    21    26    27    1
    22    27    28    2
    23     8     9    1
    24    13    14   am
    25    14    15    1
    26     6     1   ar
    27    28    20    1
    28     9     4    1
    29    28    23    1
    30    14    16    1
    31    15    17    1
