@<TRIPOS>MOLECULE
*****
 27 31 0 0 0
SMALL
GASTEIGER

@<TRIPOS>ATOM
      1 C         142.9284  138.3519  165.1313 C.ar    1  UNL1       -0.0059
      2 C         141.6387  137.6075  164.9511 C.ar    1  UNL1        0.0002
      3 C         141.1089  137.3480  163.5720 C.ar    1  UNL1        0.0373
      4 C         141.8688  137.8330  162.3731 C.ar    1  UNL1        0.1477
      5 C         143.1586  138.5774  162.5533 C.ar    1  UNL1        0.0373
      6 C         143.6883  138.8369  163.9324 C.ar    1  UNL1        0.0002
      7 C         143.4582  138.6114  166.5105 C.3     1  UNL1        0.0992
      8 C         140.4290  143.9101  169.9177 C.3     1  UNL1        0.0948
      9 C         140.7546  142.5539  170.4699 C.2     1  UNL1        0.2262
     10 O         140.4252  142.2260  171.8960 O.2     1  UNL1       -0.2749
     11 N         141.4096  141.5257  169.5959 N.am    1  UNL1       -0.2784
     12 C         141.7928  140.1348  170.0063 C.3     1  UNL1        0.1093
     13 C         142.4164  139.4574  168.8222 C.3     1  UNL1        0.0794
     14 C         142.4187  140.4296  167.6800 C.3     1  UNL1        0.0389
     15 C         141.7964  141.7079  168.1582 C.3     1  UNL1        0.0927
     16 C         142.4201  141.0306  166.9740 C.3     1  UNL1        0.0924
     17 N         142.8032  139.6396  167.3844 N.3     1  UNL1       -0.2671
     18 O         141.3390  137.5735  160.9940 O.3     1  UNL1       -0.4313
     19 C         140.5505  138.6324  160.2819 C.ar    1  UNL1        0.2642
     20 N         139.6823  138.4243  159.0765 N.ar    1  UNL1       -0.1859
     21 C         139.0870  139.7486  158.6998 C.ar    1  UNL1        0.1720
     22 N         138.1540  140.1523  157.5969 N.ar    1  UNL1       -0.2245
     23 C         137.7213  141.5826  157.4666 C.ar    1  UNL1        0.1006
     24 C         138.2215  142.6091  158.4392 C.ar    1  UNL1        0.0213
     25 C         139.1544  142.2054  159.5421 C.ar    1  UNL1        0.0113
     26 C         139.5872  140.7751  159.6725 C.ar    1  UNL1        0.0697
     27 S         140.4917  140.0853  160.6502 S.2     1  UNL1       -0.0267
@<TRIPOS>BOND
     1     8     9    1
     2     9    10    2
     3     9    11   am
     4    11    12    1
     5    12    13    1
     6    13    14    1
     7    14    15    1
     8    15    16    1
     9    16    17    1
    10    17     7    1
    11     7     1    1
    12     1     2   ar
    13     2     3   ar
    14     3     4   ar
    15     4    18    1
    16    18    19    1
    17    19    20   ar
    18    20    21   ar
    19    21    22   ar
    20    22    23   ar
    21    23    24   ar
    22    24    25   ar
    23    25    26   ar
    24    26    27   ar
    25     4     5   ar
    26     5     6   ar
    27    15    11    1
    28     6     1   ar
    29    17    13    1
    30    27    19   ar
    31    26    21   ar
@<TRIPOS>MOLECULE
*****
 27 31 0 0 0
SMALL
GASTEIGER

@<TRIPOS>ATOM
      1 C         138.4523  139.2213  164.9731 C.ar    1  UNL1       -0.0059
      2 C         138.6851  138.2835  163.8258 C.ar    1  UNL1        0.0002
      3 C         138.4517  138.7476  162.4186 C.ar    1  UNL1        0.0373
      4 C         137.9854  140.1494  162.1588 C.ar    1  UNL1        0.1477
      5 C         137.7526  141.0872  163.3062 C.ar    1  UNL1        0.0373
      6 C         137.9860  140.6231  164.7133 C.ar    1  UNL1        0.0002
      7 C         138.6857  138.7572  166.3804 C.3     1  UNL1        0.0992
      8 C         143.4450  142.3955  169.9822 C.3     1  UNL1        0.0948
      9 C         142.0864  141.9732  170.4575 C.2     1  UNL1        0.2262
     10 O         141.6303  142.3330  171.8404 O.2     1  UNL1       -0.2749
     11 N         141.1838  141.1912  169.5498 N.am    1  UNL1       -0.2784
     12 C         139.8058  140.7023  169.8842 C.3     1  UNL1        0.1093
     13 C         139.2712  139.9697  168.6895 C.3     1  UNL1        0.0794
     14 C         140.3188  140.0058  167.6166 C.3     1  UNL1        0.0389
     15 C         141.5009  140.7607  168.1483 C.3     1  UNL1        0.0927
     16 C         140.9664  140.0281  166.9536 C.3     1  UNL1        0.0924
     17 N         139.5883  139.5393  167.2880 N.3     1  UNL1       -0.2671
     18 O         137.7520  140.6135  160.7516 O.3     1  UNL1       -0.4313
     19 C         138.6669  141.6301  160.1357 C.ar    1  UNL1        0.2642
     20 N         138.4835  143.1184  160.1726 N.ar    1  UNL1       -0.1859
     21 C         139.6290  143.7452  159.4344 C.ar    1  UNL1        0.1720
     22 N         139.9756  145.1761  159.1476 N.ar    1  UNL1       -0.2245
     23 C         141.2135  145.5060  158.3675 C.ar    1  UNL1        0.1006
     24 C         142.1049  144.4051  157.8743 C.ar    1  UNL1        0.0213
     25 C         141.7584  142.9742  158.1611 C.ar    1  UNL1        0.0113
     26 C         140.5204  142.6442  158.9412 C.ar    1  UNL1        0.0697
     27 S         139.9258  141.3371  159.3746 S.2     1  UNL1       -0.0267
@<TRIPOS>BOND
     1     8     9    1
     2     9    10    2
     3     9    11   am
     4    11    12    1
     5    12    13    1
     6    13    14    1
     7    14    15    1
     8    15    16    1
     9    16    17    1
    10    17     7    1
    11     7     1    1
    12     1     2   ar
    13     2     3   ar
    14     3     4   ar
    15     4    18    1
    16    18    19    1
    17    19    20   ar
    18    20    21   ar
    19    21    22   ar
    20    22    23   ar
    21    23    24   ar
    22    24    25   ar
    23    25    26   ar
    24    26    27   ar
    25     4     5   ar
    26     5     6   ar
    27    15    11    1
    28     6     1   ar
    29    17    13    1
    30    27    19   ar
    31    26    21   ar
@<TRIPOS>MOLECULE
*****
 27 31 0 0 0
SMALL
GASTEIGER

@<TRIPOS>ATOM
      1 C         142.9914  138.3799  165.2135 C.ar    1  UNL1       -0.0059
      2 C         141.7254  137.6567  164.8612 C.ar    1  UNL1        0.0002
      3 C         141.3184  137.5134  163.4245 C.ar    1  UNL1        0.0373
      4 C         142.1775  138.0932  162.3402 C.ar    1  UNL1        0.1477
      5 C         143.4436  138.8164  162.6926 C.ar    1  UNL1        0.0373
      6 C         143.8505  138.9598  164.1292 C.ar    1  UNL1        0.0002
      7 C         143.3983  138.5233  166.6501 C.3     1  UNL1        0.0992
      8 C         140.4603  143.9157  169.9894 C.3     1  UNL1        0.0948
      9 C         140.7426  142.5544  170.5524 C.2     1  UNL1        0.2262
     10 O         140.3847  142.2422  171.9752 O.2     1  UNL1       -0.2749
     11 N         141.3829  141.5051  169.6926 N.am    1  UNL1       -0.2784
     12 C         141.7240  140.1068  170.1148 C.3     1  UNL1        0.1093
     13 C         142.3464  139.4075  168.9428 C.3     1  UNL1        0.0794
     14 C         142.3901  140.3737  167.7963 C.3     1  UNL1        0.0389
     15 C         141.7946  141.6701  168.2597 C.3     1  UNL1        0.0927
     16 C         142.4170  140.9709  167.0877 C.3     1  UNL1        0.0924
     17 N         142.7581  139.5725  167.5099 N.3     1  UNL1       -0.2671
     18 O         141.7707  137.9499  160.9036 O.3     1  UNL1       -0.4313
     19 C         142.2885  138.9139  159.8777 C.ar    1  UNL1        0.2642
     20 N         143.5843  138.7956  159.1314 N.ar    1  UNL1       -0.1859
     21 C         143.6980  139.9740  158.2104 C.ar    1  UNL1        0.1720
     22 N         144.7592  140.3856  157.2334 N.ar    1  UNL1       -0.2245
     23 C         144.5949  141.6437  156.4334 C.ar    1  UNL1        0.1006
     24 C         143.3694  142.4904  156.6105 C.ar    1  UNL1        0.0213
     25 C         142.3082  142.0788  157.5874 C.ar    1  UNL1        0.0113
     26 C         142.4725  140.8207  158.3874 C.ar    1  UNL1        0.0697
     27 S         141.6014  140.1655  159.4178 S.2     1  UNL1       -0.0267
@<TRIPOS>BOND
     1     8     9    1
     2     9    10    2
     3     9    11   am
     4    11    12    1
     5    12    13    1
     6    13    14    1
     7    14    15    1
     8    15    16    1
     9    16    17    1
    10    17     7    1
    11     7     1    1
    12     1     2   ar
    13     2     3   ar
    14     3     4   ar
    15     4    18    1
    16    18    19    1
    17    19    20   ar
    18    20    21   ar
    19    21    22   ar
    20    22    23   ar
    21    23    24   ar
    22    24    25   ar
    23    25    26   ar
    24    26    27   ar
    25     4     5   ar
    26     5     6   ar
    27    15    11    1
    28     6     1   ar
    29    17    13    1
    30    27    19   ar
    31    26    21   ar
@<TRIPOS>MOLECULE
*****
 27 31 0 0 0
SMALL
GASTEIGER

@<TRIPOS>ATOM
      1 C         138.4599  138.8974  165.3130 C.ar    1  UNL1       -0.0059
      2 C         139.0759  137.6533  164.7450 C.ar    1  UNL1        0.0002
      3 C         139.2432  137.5092  163.2612 C.ar    1  UNL1        0.0373
      4 C         138.7944  138.6093  162.3456 C.ar    1  UNL1        0.1477
      5 C         138.1784  139.8535  162.9137 C.ar    1  UNL1        0.0373
      6 C         138.0112  139.9975  164.3973 C.ar    1  UNL1        0.0002
      7 C         138.2927  139.0415  166.7967 C.3     1  UNL1        0.0992
      8 C         143.6249  142.3520  169.8738 C.3     1  UNL1        0.0948
      9 C         142.2877  142.0430  170.4791 C.2     1  UNL1        0.2262
     10 O         141.9894  142.4568  171.8897 O.2     1  UNL1       -0.2749
     11 N         141.2489  141.3202  169.6739 N.am    1  UNL1       -0.2784
     12 C         139.8744  140.9443  170.1422 C.3     1  UNL1        0.1093
     13 C         139.1782  140.2381  169.0168 C.3     1  UNL1        0.0794
     14 C         140.1224  140.1776  167.8529 C.3     1  UNL1        0.0389
     15 C         141.4022  140.8463  168.2590 C.3     1  UNL1        0.0927
     16 C         140.7061  140.1402  167.1335 C.3     1  UNL1        0.0924
     17 N         139.3315  139.7643  167.6019 N.3     1  UNL1       -0.2671
     18 O         138.9617  138.4653  160.8620 O.3     1  UNL1       -0.4313
     19 C         140.1208  139.1201  160.1708 C.ar    1  UNL1        0.2642
     20 N         141.4357  138.4736  159.8499 N.ar    1  UNL1       -0.1859
     21 C         142.2960  139.4903  159.1599 C.ar    1  UNL1        0.1720
     22 N         143.6914  139.4198  158.6141 N.ar    1  UNL1       -0.2245
     23 C         144.3036  140.6244  157.9628 C.ar    1  UNL1        0.1006
     24 C         143.5204  141.8993  157.8573 C.ar    1  UNL1        0.0213
     25 C         142.1251  141.9698  158.4031 C.ar    1  UNL1        0.0113
     26 C         141.5129  140.7652  159.0544 C.ar    1  UNL1        0.0697
     27 S         140.1685  140.5364  159.6791 S.2     1  UNL1       -0.0267
@<TRIPOS>BOND
     1     8     9    1
     2     9    10    2
     3     9    11   am
     4    11    12    1
     5    12    13    1
     6    13    14    1
     7    14    15    1
     8    15    16    1
     9    16    17    1
    10    17     7    1
    11     7     1    1
    12     1     2   ar
    13     2     3   ar
    14     3     4   ar
    15     4    18    1
    16    18    19    1
    17    19    20   ar
    18    20    21   ar
    19    21    22   ar
    20    22    23   ar
    21    23    24   ar
    22    24    25   ar
    23    25    26   ar
    24    26    27   ar
    25     4     5   ar
    26     5     6   ar
    27    15    11    1
    28     6     1   ar
    29    17    13    1
    30    27    19   ar
    31    26    21   ar
@<TRIPOS>MOLECULE
*****
 27 31 0 0 0
SMALL
GASTEIGER

@<TRIPOS>ATOM
      1 C         143.5590  138.9292  164.9514 C.ar    1  UNL1       -0.0059
      2 C         142.6074  138.3211  163.9643 C.ar    1  UNL1        0.0002
      3 C         142.7582  138.6114  162.5004 C.ar    1  UNL1        0.0373
      4 C         143.8607  139.5098  162.0236 C.ar    1  UNL1        0.1477
      5 C         144.8124  140.1179  163.0109 C.ar    1  UNL1        0.0373
      6 C         144.6615  139.8276  164.4747 C.ar    1  UNL1        0.0002
      7 C         143.4082  138.6389  166.4154 C.3     1  UNL1        0.0992
      8 C         140.4009  143.8613  169.9571 C.3     1  UNL1        0.0948
      9 C         140.8081  142.5234  170.4996 C.2     1  UNL1        0.2262
     10 O         140.5776  142.1987  171.9457 O.2     1  UNL1       -0.2749
     11 N         141.4459  141.5102  169.5958 N.am    1  UNL1       -0.2784
     12 C         141.9032  140.1382  169.9934 C.3     1  UNL1        0.1093
     13 C         142.4782  139.4711  168.7791 C.3     1  UNL1        0.0794
     14 C         142.3762  140.4310  167.6310 C.3     1  UNL1        0.0389
     15 C         141.7381  141.6912  168.1357 C.3     1  UNL1        0.0927
     16 C         142.3131  141.0242  166.9214 C.3     1  UNL1        0.0924
     17 N         142.7705  139.6521  167.3191 N.3     1  UNL1       -0.2671
     18 O         144.0116  139.8001  160.5598 O.3     1  UNL1       -0.4313
     19 C         143.5067  141.0952  159.9961 C.ar    1  UNL1        0.2642
     20 N         142.8389  142.1930  160.7700 N.ar    1  UNL1       -0.1859
     21 C         142.5005  143.2962  159.8117 C.ar    1  UNL1        0.1720
     22 N         141.8340  144.6257  160.0067 N.ar    1  UNL1       -0.2245
     23 C         141.6261  145.5393  158.8354 C.ar    1  UNL1        0.1006
     24 C         142.0847  145.1234  157.4691 C.ar    1  UNL1        0.0213
     25 C         142.7512  143.7939  157.2741 C.ar    1  UNL1        0.0113
     26 C         142.9591  142.8803  158.4455 C.ar    1  UNL1        0.0697
     27 S         143.5810  141.5200  158.5594 S.2     1  UNL1       -0.0267
@<TRIPOS>BOND
     1     8     9    1
     2     9    10    2
     3     9    11   am
     4    11    12    1
     5    12    13    1
     6    13    14    1
     7    14    15    1
     8    15    16    1
     9    16    17    1
    10    17     7    1
    11     7     1    1
    12     1     2   ar
    13     2     3   ar
    14     3     4   ar
    15     4    18    1
    16    18    19    1
    17    19    20   ar
    18    20    21   ar
    19    21    22   ar
    20    22    23   ar
    21    23    24   ar
    22    24    25   ar
    23    25    26   ar
    24    26    27   ar
    25     4     5   ar
    26     5     6   ar
    27    15    11    1
    28     6     1   ar
    29    17    13    1
    30    27    19   ar
    31    26    21   ar
@<TRIPOS>MOLECULE
*****
 27 31 0 0 0
SMALL
GASTEIGER

@<TRIPOS>ATOM
      1 C         138.5704  138.7922  162.9757 C.ar    1  UNL1       -0.0059
      2 C         138.1507  140.0754  163.6293 C.ar    1  UNL1        0.0002
      3 C         138.1445  140.1882  165.1251 C.ar    1  UNL1        0.0373
      4 C         138.5580  139.0178  165.9672 C.ar    1  UNL1        0.1477
      5 C         138.9778  137.7346  165.3135 C.ar    1  UNL1        0.0373
      6 C         138.9840  137.6218  163.8178 C.ar    1  UNL1        0.0002
      7 C         138.5766  138.6794  161.4799 C.3     1  UNL1        0.0992
      8 C         143.3332  142.3133  157.8702 C.3     1  UNL1        0.0948
      9 C         143.3572  140.8425  158.1637 C.2     1  UNL1        0.2262
     10 O         144.4896  139.9961  157.6626 O.2     1  UNL1       -0.2749
     11 N         142.2486  140.2181  158.9584 N.am    1  UNL1       -0.2784
     12 C         142.1372  138.7688  159.3285 C.3     1  UNL1        0.1093
     13 C         140.8767  138.5884  160.1213 C.3     1  UNL1        0.0794
     14 C         140.2091  139.9262  160.2411 C.3     1  UNL1        0.0389
     15 C         141.0570  140.9335  159.5224 C.3     1  UNL1        0.0927
     16 C         139.7965  140.7531  160.3152 C.3     1  UNL1        0.0924
     17 N         139.6851  139.3038  160.6853 N.3     1  UNL1       -0.2671
     18 O         138.5518  139.1305  167.4629 O.3     1  UNL1       -0.4313
     19 C         139.5867  139.9661  168.1564 C.ar    1  UNL1        0.2642
     20 N         139.3935  140.7279  169.4340 N.ar    1  UNL1       -0.1859
     21 C         140.6839  141.4192  169.7612 C.ar    1  UNL1        0.1720
     22 N         141.0847  142.3101  170.8994 N.ar    1  UNL1       -0.2245
     23 C         142.4763  142.8664  170.9622 C.ar    1  UNL1        0.1006
     24 C         143.4670  142.5319  169.8868 C.ar    1  UNL1        0.0213
     25 C         143.0662  141.6410  168.7486 C.ar    1  UNL1        0.0113
     26 C         141.6746  141.0847  168.6858 C.ar    1  UNL1        0.0697
     27 S         140.9965  140.1866  167.6940 S.2     1  UNL1       -0.0267
@<TRIPOS>BOND
     1     8     9    1
     2     9    10    2
     3     9    11   am
     4    11    12    1
     5    12    13    1
     6    13    14    1
     7    14    15    1
     8    15    16    1
     9    16    17    1
    10    17     7    1
    11     7     1    1
    12     1     2   ar
    13     2     3   ar
    14     3     4   ar
    15     4    18    1
    16    18    19    1
    17    19    20   ar
    18    20    21   ar
    19    21    22   ar
    20    22    23   ar
    21    23    24   ar
    22    24    25   ar
    23    25    26   ar
    24    26    27   ar
    25     4     5   ar
    26     5     6   ar
    27    15    11    1
    28     6     1   ar
    29    17    13    1
    30    27    19   ar
    31    26    21   ar
@<TRIPOS>MOLECULE
*****
 27 31 0 0 0
SMALL
GASTEIGER

@<TRIPOS>ATOM
      1 C         139.4873  138.7999  164.5953 C.ar    1  UNL1       -0.0059
      2 C         139.5345  139.5835  163.3171 C.ar    1  UNL1        0.0002
      3 C         140.3773  139.1026  162.1732 C.ar    1  UNL1        0.0373
      4 C         141.1727  137.8380  162.3074 C.ar    1  UNL1        0.1477
      5 C         141.1255  137.0543  163.5856 C.ar    1  UNL1        0.0373
      6 C         140.2828  137.5353  164.7295 C.ar    1  UNL1        0.0002
      7 C         138.6446  139.2808  165.7392 C.3     1  UNL1        0.0992
      8 C         141.9400  143.4421  170.2873 C.3     1  UNL1        0.0948
      9 C         140.9806  142.3356  170.6117 C.2     1  UNL1        0.2262
     10 O         140.6434  142.0304  172.0411 O.2     1  UNL1       -0.2749
     11 N         140.3584  141.5343  169.5067 N.am    1  UNL1       -0.2784
     12 C         139.3872  140.4040  169.6765 C.3     1  UNL1        0.1093
     13 C         139.0268  139.8937  168.3127 C.3     1  UNL1        0.0794
     14 C         139.7754  140.7087  167.3002 C.3     1  UNL1        0.0389
     15 C         140.5984  141.7227  168.0381 C.3     1  UNL1        0.0927
     16 C         140.2380  141.2125  166.6744 C.3     1  UNL1        0.0924
     17 N         139.2667  140.0821  166.8441 N.3     1  UNL1       -0.2671
     18 O         142.0154  137.3570  161.1635 O.3     1  UNL1       -0.4313
     19 C         142.3258  138.2784  160.0213 C.ar    1  UNL1        0.2642
     20 N         141.5219  138.4252  158.7634 N.ar    1  UNL1       -0.1859
     21 C         142.1938  139.4523  157.9011 C.ar    1  UNL1        0.1720
     22 N         141.8530  140.0062  156.5494 N.ar    1  UNL1       -0.2245
     23 C         142.7313  141.0481  155.9227 C.ar    1  UNL1        0.1006
     24 C         143.9505  141.5360  156.6475 C.ar    1  UNL1        0.0213
     25 C         144.2914  140.9821  157.9992 C.ar    1  UNL1        0.0113
     26 C         143.4130  139.9402  158.6259 C.ar    1  UNL1        0.0697
     27 S         143.4946  139.2147  159.9363 S.2     1  UNL1       -0.0267
@<TRIPOS>BOND
     1     8     9    1
     2     9    10    2
     3     9    11   am
     4    11    12    1
     5    12    13    1
     6    13    14    1
     7    14    15    1
     8    15    16    1
     9    16    17    1
    10    17     7    1
    11     7     1    1
    12     1     2   ar
    13     2     3   ar
    14     3     4   ar
    15     4    18    1
    16    18    19    1
    17    19    20   ar
    18    20    21   ar
    19    21    22   ar
    20    22    23   ar
    21    23    24   ar
    22    24    25   ar
    23    25    26   ar
    24    26    27   ar
    25     4     5   ar
    26     5     6   ar
    27    15    11    1
    28     6     1   ar
    29    17    13    1
    30    27    19   ar
    31    26    21   ar
@<TRIPOS>MOLECULE
*****
 27 31 0 0 0
SMALL
GASTEIGER

@<TRIPOS>ATOM
      1 C         138.3857  139.4659  162.4222 C.ar    1  UNL1       -0.0059
      2 C         137.9812  140.5911  163.3278 C.ar    1  UNL1        0.0002
      3 C         138.0058  140.4023  164.8157 C.ar    1  UNL1        0.0373
      4 C         138.4349  139.0882  165.3980 C.ar    1  UNL1        0.1477
      5 C         138.8394  137.9629  164.4923 C.ar    1  UNL1        0.0373
      6 C         138.8148  138.1517  163.0044 C.ar    1  UNL1        0.0002
      7 C         138.3611  139.6547  160.9343 C.3     1  UNL1        0.0992
      8 C         140.4272  145.6518  157.9972 C.3     1  UNL1        0.0948
      9 C         141.3062  144.5349  158.4767 C.2     1  UNL1        0.2262
     10 O         142.7964  144.6442  158.3457 O.2     1  UNL1       -0.2749
     11 N         140.6949  143.3087  159.0873 N.am    1  UNL1       -0.2784
     12 C         141.4422  142.1174  159.6090 C.3     1  UNL1        0.1093
     13 C         140.4382  141.1310  160.1276 C.3     1  UNL1        0.0794
     14 C         139.0703  141.7126  159.9264 C.3     1  UNL1        0.0389
     15 C         139.2290  143.0586  159.2835 C.3     1  UNL1        0.0927
     16 C         138.2249  142.0722  159.8020 C.3     1  UNL1        0.0924
     17 N         138.9723  140.8809  160.3237 N.3     1  UNL1       -0.2671
     18 O         138.4595  138.8993  166.8858 O.3     1  UNL1       -0.4313
     19 C         139.4464  139.6587  167.7220 C.ar    1  UNL1        0.2642
     20 N         139.2314  140.1292  169.1300 N.ar    1  UNL1       -0.1859
     21 C         140.4737  140.8423  169.5753 C.ar    1  UNL1        0.1720
     22 N         140.8370  141.5148  170.8659 N.ar    1  UNL1       -0.2245
     23 C         142.1830  142.1577  171.0236 C.ar    1  UNL1        0.1006
     24 C         143.1657  142.1280  169.8908 C.ar    1  UNL1        0.0213
     25 C         142.8025  141.4555  168.6002 C.ar    1  UNL1        0.0113
     26 C         141.4564  140.8126  168.4424 C.ar    1  UNL1        0.0697
     27 S         140.8215  140.0812  167.2971 S.2     1  UNL1       -0.0267
@<TRIPOS>BOND
     1     8     9    1
     2     9    10    2
     3     9    11   am
     4    11    12    1
     5    12    13    1
     6    13    14    1
     7    14    15    1
     8    15    16    1
     9    16    17    1
    10    17     7    1
    11     7     1    1
    12     1     2   ar
    13     2     3   ar
    14     3     4   ar
    15     4    18    1
    16    18    19    1
    17    19    20   ar
    18    20    21   ar
    19    21    22   ar
    20    22    23   ar
    21    23    24   ar
    22    24    25   ar
    23    25    26   ar
    24    26    27   ar
    25     4     5   ar
    26     5     6   ar
    27    15    11    1
    28     6     1   ar
    29    17    13    1
    30    27    19   ar
    31    26    21   ar
@<TRIPOS>MOLECULE
*****
 27 31 0 0 0
SMALL
GASTEIGER

@<TRIPOS>ATOM
      1 C         142.1239  136.8471  156.9637 C.ar    1  UNL1       -0.0059
      2 C         140.7175  136.8920  156.4442 C.ar    1  UNL1        0.0002
      3 C         139.6874  137.7317  157.1399 C.ar    1  UNL1        0.0373
      4 C         140.0638  138.5264  158.3551 C.ar    1  UNL1        0.1477
      5 C         141.4703  138.4815  158.8746 C.ar    1  UNL1        0.0373
      6 C         142.5003  137.6418  158.1789 C.ar    1  UNL1        0.0002
      7 C         143.1540  136.0074  156.2680 C.3     1  UNL1        0.0992
      8 C         144.0957  129.3501  158.1793 C.3     1  UNL1        0.0948
      9 C         143.1912  129.8556  157.0947 C.2     1  UNL1        0.2262
     10 O         142.3704  128.8903  156.2921 O.2     1  UNL1       -0.2749
     11 N         143.1076  131.3265  156.8128 N.am    1  UNL1       -0.2784
     12 C         142.2526  131.9763  155.7657 C.3     1  UNL1        0.1093
     13 C         142.4809  133.4572  155.8342 C.3     1  UNL1        0.0794
     14 C         143.4770  133.7227  156.9238 C.3     1  UNL1        0.0389
     15 C         143.8644  132.4059  157.5286 C.3     1  UNL1        0.0927
     16 C         144.0927  133.8868  157.5972 C.3     1  UNL1        0.0924
     17 N         143.2377  134.5366  156.5500 N.3     1  UNL1       -0.2671
     18 O         139.0338  139.3661  159.0508 O.3     1  UNL1       -0.4313
     19 C         138.8833  139.2865  160.5411 C.ar    1  UNL1        0.2642
     20 N         139.1007  138.0658  161.3853 N.ar    1  UNL1       -0.1859
     21 C         138.8407  138.4385  162.8148 C.ar    1  UNL1        0.1720
     22 N         138.8994  137.6441  164.0858 N.ar    1  UNL1       -0.2245
     23 C         138.5801  138.3007  165.3961 C.ar    1  UNL1        0.1006
     24 C         138.2021  139.7517  165.4354 C.ar    1  UNL1        0.0213
     25 C         138.1434  140.5462  164.1644 C.ar    1  UNL1        0.0113
     26 C         138.4627  139.8896  162.8541 C.ar    1  UNL1        0.0697
     27 S         138.4891  140.4136  161.4489 S.2     1  UNL1       -0.0267
@<TRIPOS>BOND
     1     8     9    1
     2     9    10    2
     3     9    11   am
     4    11    12    1
     5    12    13    1
     6    13    14    1
     7    14    15    1
     8    15    16    1
     9    16    17    1
    10    17     7    1
    11     7     1    1
    12     1     2   ar
    13     2     3   ar
    14     3     4   ar
    15     4    18    1
    16    18    19    1
    17    19    20   ar
    18    20    21   ar
    19    21    22   ar
    20    22    23   ar
    21    23    24   ar
    22    24    25   ar
    23    25    26   ar
    24    26    27   ar
    25     4     5   ar
    26     5     6   ar
    27    15    11    1
    28     6     1   ar
    29    17    13    1
    30    27    19   ar
    31    26    21   ar
