@<TRIPOS>MOLECULE
*****
 33 36 0 0 0
SMALL
GASTEIGER

@<TRIPOS>ATOM
      1 N         140.0184  138.8623  159.6221 N.am    1  UNL1       -0.2555
      2 C         140.5393  138.6428  161.0114 C.3     1  UNL1        0.1197
      3 C         139.8596  139.2947  162.1790 C.3     1  UNL1        0.1160
      4 N         138.6589  140.1660  161.9571 N.am    1  UNL1       -0.2660
      5 C         137.9792  140.8178  163.1246 C.2     1  UNL1        0.2494
      6 O         136.7785  141.6892  162.9027 O.2     1  UNL1       -0.2699
      7 C         138.1380  140.3855  160.5677 C.3     1  UNL1        0.1799
      8 C         138.8177  139.7337  159.4002 C.2     1  UNL1        0.2497
      9 O         138.2968  139.9532  158.0107 O.2     1  UNL1       -0.2727
     10 C         142.0575  136.9069  156.1195 C.ar    1  UNL1        0.1386
     11 C         142.8746  137.4701  157.2443 C.ar    1  UNL1        0.0382
     12 C         142.1949  138.1219  158.4118 C.ar    1  UNL1        0.0180
     13 C         140.6981  138.2105  158.4545 C.ar    1  UNL1        0.0541
     14 C         139.8810  137.6473  157.3297 C.ar    1  UNL1        0.0180
     15 C         140.5608  136.9955  156.1622 C.ar    1  UNL1        0.0382
     16 O         142.7373  136.2551  154.9519 O.3     1  UNL1       -0.4754
     17 C         141.9353  135.4575  153.9668 C.3     1  UNL1        0.2068
     18 C         141.8319  133.9683  154.1145 C.3     1  UNL1        0.0646
     19 C         141.7317  133.3553  155.4798 C.3     1  UNL1        0.0759
     20 C         143.8632  131.0157  154.6849 C.3     1  UNL1        0.0173
     21 C         143.9574  131.9280  155.8718 C.3     1  UNL1        0.0576
     22 C         145.0479  131.9250  156.9018 C.3     1  UNL1        0.0174
     23 C         144.7421  132.9986  157.9037 C.3     1  UNL1        0.0187
     24 C         143.4626  133.6651  157.4930 C.3     1  UNL1        0.0721
     25 N         142.9776  133.0034  156.2372 N.3     1  UNL1       -0.2738
     26 C         138.5001  140.5983  164.5140 C.ar    1  UNL1        0.0536
     27 C         138.0501  139.4053  165.3039 C.ar    1  UNL1        0.0052
     28 C         138.5711  139.1858  166.6934 C.ar    1  UNL1        0.0104
     29 C         139.5420  140.1594  167.2928 C.ar    1  UNL1        0.0685
     30 C         139.9921  141.3524  166.5028 C.ar    1  UNL1        0.0104
     31 C         139.4711  141.5719  165.1135 C.ar    1  UNL1        0.0052
     32 C         140.0629  139.9399  168.6822 C.1     1  UNL1        0.1004
     33 N         140.5839  139.7204  170.0716 N.1     1  UNL1       -0.1908
@<TRIPOS>BOND
     1    21    20    1
     2    21    22    1
     3    22    23    1
     4    23    24    1
     5    24    25    1
     6    25    19    1
     7    19    18    1
     8    18    17    1
     9    17    16    1
    10    16    10    1
    11    10    11   ar
    12    11    12   ar
    13    12    13   ar
    14    13     1    1
    15     1     2    1
    16     2     3    1
    17     3     4    1
    18     4     5   am
    19     5     6    2
    20     5    26    1
    21    26    27   ar
    22    27    28   ar
    23    28    29   ar
    24    29    32    1
    25    32    33    3
    26    29    30   ar
    27    30    31   ar
    28     4     7    1
    29     7     8    1
    30     8     9    2
    31    13    14   ar
    32    14    15   ar
    33    25    21    1
    34    15    10   ar
    35     8     1   am
    36    31    26   ar
@<TRIPOS>MOLECULE
*****
 33 36 0 0 0
SMALL
GASTEIGER

@<TRIPOS>ATOM
      1 N         141.3517  140.0009  158.4929 N.am    1  UNL1       -0.2555
      2 C         140.8485  138.6003  158.3056 C.3     1  UNL1        0.1197
      3 C         141.6384  137.6228  157.4865 C.3     1  UNL1        0.1160
      4 N         142.9315  138.0460  156.8549 N.am    1  UNL1       -0.2660
      5 C         143.7213  137.0686  156.0360 C.2     1  UNL1        0.2494
      6 O         145.0144  137.4918  155.4044 O.2     1  UNL1       -0.2699
      7 C         143.4346  139.4467  157.0423 C.3     1  UNL1        0.1799
      8 C         142.6447  140.4241  157.8613 C.2     1  UNL1        0.2497
      9 O         143.1479  141.8247  158.0487 O.2     1  UNL1       -0.2727
     10 C         138.9820  142.9332  160.9498 C.ar    1  UNL1        0.1386
     11 C         138.4633  142.4793  159.6176 C.ar    1  UNL1        0.0382
     12 C         139.2532  141.5018  158.7986 C.ar    1  UNL1        0.0180
     13 C         140.5618  140.9783  159.3119 C.ar    1  UNL1        0.0541
     14 C         141.0805  141.4323  160.6441 C.ar    1  UNL1        0.0180
     15 C         140.2907  142.4097  161.4631 C.ar    1  UNL1        0.0382
     16 O         138.1921  143.9106  161.7688 O.3     1  UNL1       -0.4754
     17 C         137.8126  143.5725  163.1800 C.3     1  UNL1        0.2068
     18 C         137.3618  142.1835  163.5231 C.3     1  UNL1        0.0646
     19 C         138.0823  141.4009  164.5806 C.3     1  UNL1        0.0759
     20 C         138.2393  139.0533  166.8418 C.3     1  UNL1        0.0173
     21 C         138.5134  138.8859  165.3766 C.3     1  UNL1        0.0576
     22 C         138.9077  137.6100  164.6935 C.3     1  UNL1        0.0174
     23 C         139.0792  137.9006  163.2319 C.3     1  UNL1        0.0187
     24 C         138.7909  139.3560  163.0118 C.3     1  UNL1        0.0721
     25 N         138.4412  139.9650  164.3372 N.3     1  UNL1       -0.2738
     26 C         143.2182  135.6680  155.8486 C.ar    1  UNL1        0.0536
     27 C         143.5062  134.6227  156.8851 C.ar    1  UNL1        0.0052
     28 C         143.0030  133.2220  156.6976 C.ar    1  UNL1        0.0104
     29 C         142.2118  132.8668  155.4738 C.ar    1  UNL1        0.0685
     30 C         141.9237  133.9122  154.4374 C.ar    1  UNL1        0.0104
     31 C         142.4269  135.3128  154.6247 C.ar    1  UNL1        0.0052
     32 C         141.7086  131.4662  155.2865 C.1     1  UNL1        0.1004
     33 N         141.2054  130.0656  155.0991 N.1     1  UNL1       -0.1908
@<TRIPOS>BOND
     1    21    20    1
     2    21    22    1
     3    22    23    1
     4    23    24    1
     5    24    25    1
     6    25    19    1
     7    19    18    1
     8    18    17    1
     9    17    16    1
    10    16    10    1
    11    10    11   ar
    12    11    12   ar
    13    12    13   ar
    14    13     1    1
    15     1     2    1
    16     2     3    1
    17     3     4    1
    18     4     5   am
    19     5     6    2
    20     5    26    1
    21    26    27   ar
    22    27    28   ar
    23    28    29   ar
    24    29    32    1
    25    32    33    3
    26    29    30   ar
    27    30    31   ar
    28     4     7    1
    29     7     8    1
    30     8     9    2
    31    13    14   ar
    32    14    15   ar
    33    25    21    1
    34    15    10   ar
    35     8     1   am
    36    31    26   ar
@<TRIPOS>MOLECULE
*****
 33 36 0 0 0
SMALL
GASTEIGER

@<TRIPOS>ATOM
      1 N         141.2066  139.7958  158.5018 N.am    1  UNL1       -0.2555
      2 C         140.7787  138.3850  158.2257 C.3     1  UNL1        0.1197
      3 C         141.6298  137.4975  157.3666 C.3     1  UNL1        0.1160
      4 N         142.9090  138.0210  156.7836 N.am    1  UNL1       -0.2660
      5 C         143.7601  137.1336  155.9246 C.2     1  UNL1        0.2494
      6 O         145.0393  137.6571  155.3417 O.2     1  UNL1       -0.2699
      7 C         143.3369  139.4319  157.0598 C.3     1  UNL1        0.1799
      8 C         142.4857  140.3193  157.9189 C.2     1  UNL1        0.2497
      9 O         142.9137  141.7302  158.1950 O.2     1  UNL1       -0.2727
     10 C         138.6532  142.4581  161.0791 C.ar    1  UNL1        0.1386
     11 C         139.6527  141.5361  161.7122 C.ar    1  UNL1        0.0382
     12 C         140.5038  140.6487  160.8531 C.ar    1  UNL1        0.0180
     13 C         140.3554  140.6833  159.3609 C.ar    1  UNL1        0.0541
     14 C         139.3559  141.6052  158.7277 C.ar    1  UNL1        0.0180
     15 C         138.5048  142.4926  159.5868 C.ar    1  UNL1        0.0382
     16 O         137.8020  143.3455  161.9382 O.3     1  UNL1       -0.4754
     17 C         137.6947  143.0843  163.4113 C.3     1  UNL1        0.2068
     18 C         137.7242  144.2291  164.3802 C.3     1  UNL1        0.0646
     19 C         139.0372  144.7576  164.8768 C.3     1  UNL1        0.0759
     20 C         139.9738  146.1626  162.0843 C.3     1  UNL1        0.0173
     21 C         140.7292  145.1081  162.8375 C.3     1  UNL1        0.0576
     22 C         142.0478  144.5142  162.4392 C.3     1  UNL1        0.0174
     23 C         142.4323  143.5013  163.4767 C.3     1  UNL1        0.0187
     24 C         141.3513  143.4693  164.5161 C.3     1  UNL1        0.0721
     25 N         140.2987  144.4623  164.1210 N.3     1  UNL1       -0.2738
     26 C         143.3322  135.7228  155.6485 C.ar    1  UNL1        0.0536
     27 C         142.5814  135.3992  154.3908 C.ar    1  UNL1        0.0052
     28 C         142.1535  133.9883  154.1147 C.ar    1  UNL1        0.0104
     29 C         142.4763  132.9009  155.0962 C.ar    1  UNL1        0.0685
     30 C         143.2271  133.2245  156.3539 C.ar    1  UNL1        0.0104
     31 C         143.6550  134.6353  156.6300 C.ar    1  UNL1        0.0052
     32 C         142.0483  131.4901  154.8201 C.1     1  UNL1        0.1004
     33 N         141.6204  130.0791  154.5440 N.1     1  UNL1       -0.1908
@<TRIPOS>BOND
     1    21    20    1
     2    21    22    1
     3    22    23    1
     4    23    24    1
     5    24    25    1
     6    25    19    1
     7    19    18    1
     8    18    17    1
     9    17    16    1
    10    16    10    1
    11    10    11   ar
    12    11    12   ar
    13    12    13   ar
    14    13     1    1
    15     1     2    1
    16     2     3    1
    17     3     4    1
    18     4     5   am
    19     5     6    2
    20     5    26    1
    21    26    27   ar
    22    27    28   ar
    23    28    29   ar
    24    29    32    1
    25    32    33    3
    26    29    30   ar
    27    30    31   ar
    28     4     7    1
    29     7     8    1
    30     8     9    2
    31    13    14   ar
    32    14    15   ar
    33    25    21    1
    34    15    10   ar
    35     8     1   am
    36    31    26   ar
@<TRIPOS>MOLECULE
*****
 33 36 0 0 0
SMALL
GASTEIGER

@<TRIPOS>ATOM
      1 N         140.5384  138.8518  162.6636 N.am    1  UNL1       -0.2555
      2 C         141.3991  139.7402  163.5120 C.3     1  UNL1        0.1197
      3 C         141.0369  139.9876  164.9464 C.3     1  UNL1        0.1160
      4 N         139.8139  139.3467  165.5324 N.am    1  UNL1       -0.2660
      5 C         139.4516  139.5941  166.9668 C.2     1  UNL1        0.2494
      6 O         138.2286  138.9532  167.5528 O.2     1  UNL1       -0.2699
      7 C         138.9531  138.4582  164.6840 C.3     1  UNL1        0.1799
      8 C         139.3153  138.2108  163.2496 C.2     1  UNL1        0.2497
      9 O         138.4546  137.3224  162.4011 O.2     1  UNL1       -0.2727
     10 C         141.6251  138.1093  158.3604 C.ar    1  UNL1        0.1386
     11 C         142.5964  137.7629  159.4497 C.ar    1  UNL1        0.0382
     12 C         142.2341  138.0104  160.8841 C.ar    1  UNL1        0.0180
     13 C         140.9006  138.6043  161.2291 C.ar    1  UNL1        0.0541
     14 C         139.9294  138.9507  160.1398 C.ar    1  UNL1        0.0180
     15 C         140.2917  138.7032  158.7054 C.ar    1  UNL1        0.0382
     16 O         141.9874  137.8618  156.9259 O.3     1  UNL1       -0.4754
     17 C         141.9269  136.4715  156.3662 C.3     1  UNL1        0.2068
     18 C         143.1932  135.7047  156.1242 C.3     1  UNL1        0.0646
     19 C         143.5100  134.4979  156.9569 C.3     1  UNL1        0.0759
     20 C         145.5431  132.2059  158.0805 C.3     1  UNL1        0.0173
     21 C         144.7496  132.1344  156.8096 C.3     1  UNL1        0.0576
     22 C         144.7513  130.9967  155.8321 C.3     1  UNL1        0.0174
     23 C         143.8179  131.3470  154.7114 C.3     1  UNL1        0.0187
     24 C         143.2392  132.7012  154.9964 C.3     1  UNL1        0.0721
     25 N         143.8151  133.1878  156.2931 N.3     1  UNL1       -0.2738
     26 C         140.3124  140.4825  167.8152 C.ar    1  UNL1        0.0536
     27 C         140.0132  141.9494  167.9087 C.ar    1  UNL1        0.0052
     28 C         140.8741  142.8378  168.7571 C.ar    1  UNL1        0.0104
     29 C         142.0340  142.2593  169.5120 C.ar    1  UNL1        0.0685
     30 C         142.3331  140.7924  169.4186 C.ar    1  UNL1        0.0104
     31 C         141.4723  139.9040  168.5702 C.ar    1  UNL1        0.0052
     32 C         142.8947  143.1477  170.3604 C.1     1  UNL1        0.1004
     33 N         143.7555  144.0361  171.2089 N.1     1  UNL1       -0.1908
@<TRIPOS>BOND
     1    21    20    1
     2    21    22    1
     3    22    23    1
     4    23    24    1
     5    24    25    1
     6    25    19    1
     7    19    18    1
     8    18    17    1
     9    17    16    1
    10    16    10    1
    11    10    11   ar
    12    11    12   ar
    13    12    13   ar
    14    13     1    1
    15     1     2    1
    16     2     3    1
    17     3     4    1
    18     4     5   am
    19     5     6    2
    20     5    26    1
    21    26    27   ar
    22    27    28   ar
    23    28    29   ar
    24    29    32    1
    25    32    33    3
    26    29    30   ar
    27    30    31   ar
    28     4     7    1
    29     7     8    1
    30     8     9    2
    31    13    14   ar
    32    14    15   ar
    33    25    21    1
    34    15    10   ar
    35     8     1   am
    36    31    26   ar
@<TRIPOS>MOLECULE
*****
 33 36 0 0 0
SMALL
GASTEIGER

@<TRIPOS>ATOM
      1 N         143.1519  138.8523  161.6118 N.am    1  UNL1       -0.2555
      2 C         142.8165  137.6064  160.8468 C.3     1  UNL1        0.1197
      3 C         142.7704  137.6362  159.3478 C.3     1  UNL1        0.1160
      4 N         143.0596  138.9120  158.6138 N.am    1  UNL1       -0.2660
      5 C         143.0135  138.9418  157.1148 C.2     1  UNL1        0.2494
      6 O         143.3028  140.2176  156.3808 O.2     1  UNL1       -0.2699
      7 C         143.3950  140.1579  159.3788 C.3     1  UNL1        0.1799
      8 C         143.4411  140.1281  160.8778 C.2     1  UNL1        0.2497
      9 O         143.7765  141.3740  161.6428 O.2     1  UNL1       -0.2727
     10 C         143.2902  138.7628  166.1087 C.ar    1  UNL1        0.1386
     11 C         142.0114  138.4466  165.3913 C.ar    1  UNL1        0.0382
     12 C         141.9653  138.4764  163.8923 C.ar    1  UNL1        0.0180
     13 C         143.1980  138.8225  163.1108 C.ar    1  UNL1        0.0541
     14 C         144.4768  139.1387  163.8282 C.ar    1  UNL1        0.0180
     15 C         144.5228  139.1089  165.3272 C.ar    1  UNL1        0.0382
     16 O         143.3363  138.7330  167.6078 O.3     1  UNL1       -0.4754
     17 C         142.4199  139.6140  168.4040 C.3     1  UNL1        0.2068
     18 C         142.8041  141.0364  168.6853 C.3     1  UNL1        0.0646
     19 C         142.0213  142.1599  168.0728 C.3     1  UNL1        0.0759
     20 C         143.8656  142.7703  165.4508 C.3     1  UNL1        0.0173
     21 C         142.4250  142.3527  165.4375 C.3     1  UNL1        0.0576
     22 C         141.5792  142.1424  164.2167 C.3     1  UNL1        0.0174
     23 C         140.2086  141.7318  164.6674 C.3     1  UNL1        0.0187
     24 C         140.2075  141.6884  166.1668 C.3     1  UNL1        0.0721
     25 N         141.5772  142.0721  166.6427 N.3     1  UNL1       -0.2738
     26 C         142.6782  137.6959  156.3498 C.ar    1  UNL1        0.0536
     27 C         143.7765  136.8159  155.8311 C.ar    1  UNL1        0.0052
     28 C         143.4411  135.5699  155.0661 C.ar    1  UNL1        0.0104
     29 C         142.0074  135.2041  154.8199 C.ar    1  UNL1        0.0685
     30 C         140.9091  136.0842  155.3386 C.ar    1  UNL1        0.0104
     31 C         141.2444  137.3301  156.1036 C.ar    1  UNL1        0.0052
     32 C         141.6721  133.9582  154.0549 C.1     1  UNL1        0.1004
     33 N         141.3367  132.7122  153.2899 N.1     1  UNL1       -0.1908
@<TRIPOS>BOND
     1    21    20    1
     2    21    22    1
     3    22    23    1
     4    23    24    1
     5    24    25    1
     6    25    19    1
     7    19    18    1
     8    18    17    1
     9    17    16    1
    10    16    10    1
    11    10    11   ar
    12    11    12   ar
    13    12    13   ar
    14    13     1    1
    15     1     2    1
    16     2     3    1
    17     3     4    1
    18     4     5   am
    19     5     6    2
    20     5    26    1
    21    26    27   ar
    22    27    28   ar
    23    28    29   ar
    24    29    32    1
    25    32    33    3
    26    29    30   ar
    27    30    31   ar
    28     4     7    1
    29     7     8    1
    30     8     9    2
    31    13    14   ar
    32    14    15   ar
    33    25    21    1
    34    15    10   ar
    35     8     1   am
    36    31    26   ar
@<TRIPOS>MOLECULE
*****
 33 36 0 0 0
SMALL
GASTEIGER

@<TRIPOS>ATOM
      1 N         141.6749  144.1776  158.5701 N.am    1  UNL1       -0.2555
      2 C         141.8575  145.6322  158.2528 C.3     1  UNL1        0.1197
      3 C         140.9159  146.3175  157.3073 C.3     1  UNL1        0.1160
      4 N         139.7919  145.5482  156.6792 N.am    1  UNL1       -0.2660
      5 C         138.8504  146.2334  155.7337 C.2     1  UNL1        0.2494
      6 O         137.7263  145.4641  155.1056 O.2     1  UNL1       -0.2699
      7 C         139.6093  144.0935  156.9965 C.3     1  UNL1        0.1799
      8 C         140.5508  143.4082  157.9420 C.2     1  UNL1        0.2497
      9 O         140.3683  141.9535  158.2593 O.2     1  UNL1       -0.2727
     10 C         144.4993  142.1217  161.4066 C.ar    1  UNL1        0.1386
     11 C         143.4048  142.9969  161.9411 C.ar    1  UNL1        0.0382
     12 C         142.4633  143.6822  160.9957 C.ar    1  UNL1        0.0180
     13 C         142.6164  143.4922  159.5156 C.ar    1  UNL1        0.0541
     14 C         143.7110  142.6170  158.9811 C.ar    1  UNL1        0.0180
     15 C         144.6525  141.9317  159.9266 C.ar    1  UNL1        0.0382
     16 O         145.4409  141.4363  162.3521 O.3     1  UNL1       -0.4754
     17 C         145.0240  141.1776  163.7696 C.3     1  UNL1        0.2068
     18 C         144.8999  139.7688  164.2696 C.3     1  UNL1        0.0646
     19 C         143.6004  139.0336  164.1255 C.3     1  UNL1        0.0759
     20 C         143.9268  138.2327  160.9788 C.3     1  UNL1        0.0173
     21 C         142.8026  139.0273  161.5744 C.3     1  UNL1        0.0576
     22 C         141.6310  139.5933  160.8280 C.3     1  UNL1        0.0174
     23 C         140.7568  140.3112  161.8132 C.3     1  UNL1        0.0187
     24 C         141.3882  140.1889  163.1683 C.3     1  UNL1        0.0721
     25 N         142.6525  139.3954  163.0207 N.3     1  UNL1       -0.2738
     26 C         139.0329  147.6881  155.4164 C.ar    1  UNL1        0.0536
     27 C         139.8222  148.0990  154.2089 C.ar    1  UNL1        0.0052
     28 C         140.0048  149.5537  153.8916 C.ar    1  UNL1        0.0104
     29 C         139.3980  150.5974  154.7818 C.ar    1  UNL1        0.0685
     30 C         138.6087  150.1864  155.9894 C.ar    1  UNL1        0.0104
     31 C         138.4261  148.7318  156.3067 C.ar    1  UNL1        0.0052
     32 C         139.5806  152.0520  154.4645 C.1     1  UNL1        0.1004
     33 N         139.7632  153.5067  154.1472 N.1     1  UNL1       -0.1908
@<TRIPOS>BOND
     1    21    20    1
     2    21    22    1
     3    22    23    1
     4    23    24    1
     5    24    25    1
     6    25    19    1
     7    19    18    1
     8    18    17    1
     9    17    16    1
    10    16    10    1
    11    10    11   ar
    12    11    12   ar
    13    12    13   ar
    14    13     1    1
    15     1     2    1
    16     2     3    1
    17     3     4    1
    18     4     5   am
    19     5     6    2
    20     5    26    1
    21    26    27   ar
    22    27    28   ar
    23    28    29   ar
    24    29    32    1
    25    32    33    3
    26    29    30   ar
    27    30    31   ar
    28     4     7    1
    29     7     8    1
    30     8     9    2
    31    13    14   ar
    32    14    15   ar
    33    25    21    1
    34    15    10   ar
    35     8     1   am
    36    31    26   ar
@<TRIPOS>MOLECULE
*****
 33 36 0 0 0
SMALL
GASTEIGER

@<TRIPOS>ATOM
      1 N         142.0311  140.0010  159.3522 N.am    1  UNL1       -0.2555
      2 C         141.3659  138.6891  159.0583 C.3     1  UNL1        0.1197
      3 C         141.9200  137.7890  157.9939 C.3     1  UNL1        0.1160
      4 N         143.1394  138.2009  157.2235 N.am    1  UNL1       -0.2660
      5 C         143.6935  137.3010  156.1591 C.2     1  UNL1        0.2494
      6 O         144.9129  137.7129  155.3887 O.2     1  UNL1       -0.2699
      7 C         143.8046  139.5129  157.5175 C.3     1  UNL1        0.1799
      8 C         143.2504  140.4129  158.5818 C.2     1  UNL1        0.2497
      9 O         143.9156  141.7248  158.8759 O.2     1  UNL1       -0.2727
     10 C         140.3687  142.7011  162.5453 C.ar    1  UNL1        0.1386
     11 C         140.0763  142.9795  161.1007 C.ar    1  UNL1        0.0382
     12 C         140.6304  142.0795  160.0364 C.ar    1  UNL1        0.0180
     13 C         141.4769  140.9010  160.4167 C.ar    1  UNL1        0.0541
     14 C         141.7694  140.6226  161.8613 C.ar    1  UNL1        0.0180
     15 C         141.2152  141.5226  162.9256 C.ar    1  UNL1        0.0382
     16 O         139.8145  143.6011  163.6097 O.3     1  UNL1       -0.4754
     17 C         140.6736  144.6779  164.2035 C.3     1  UNL1        0.2068
     18 C         141.7905  145.2749  163.3995 C.3     1  UNL1        0.0646
     19 C         143.2102  145.1221  163.8589 C.3     1  UNL1        0.0759
     20 C         143.7743  142.7750  166.0549 C.3     1  UNL1        0.0173
     21 C         144.2046  142.7600  164.6180 C.3     1  UNL1        0.0576
     22 C         144.9698  141.6634  163.9383 C.3     1  UNL1        0.0174
     23 C         145.1835  142.0645  162.5088 C.3     1  UNL1        0.0187
     24 C         144.5503  143.4090  162.3050 C.3     1  UNL1        0.0721
     25 N         143.9453  143.8388  163.6086 N.3     1  UNL1       -0.2738
     26 C         143.0283  135.9891  155.8651 C.ar    1  UNL1        0.0536
     27 C         143.3671  134.7769  156.6810 C.ar    1  UNL1        0.0052
     28 C         142.7019  133.4650  156.3870 C.ar    1  UNL1        0.0104
     29 C         141.6978  133.3653  155.2771 C.ar    1  UNL1        0.0685
     30 C         141.3590  134.5775  154.4612 C.ar    1  UNL1        0.0104
     31 C         142.0242  135.8894  154.7552 C.ar    1  UNL1        0.0052
     32 C         141.0326  132.0535  154.9832 C.1     1  UNL1        0.1004
     33 N         140.3674  130.7415  154.6892 N.1     1  UNL1       -0.1908
@<TRIPOS>BOND
     1    21    20    1
     2    21    22    1
     3    22    23    1
     4    23    24    1
     5    24    25    1
     6    25    19    1
     7    19    18    1
     8    18    17    1
     9    17    16    1
    10    16    10    1
    11    10    11   ar
    12    11    12   ar
    13    12    13   ar
    14    13     1    1
    15     1     2    1
    16     2     3    1
    17     3     4    1
    18     4     5   am
    19     5     6    2
    20     5    26    1
    21    26    27   ar
    22    27    28   ar
    23    28    29   ar
    24    29    32    1
    25    32    33    3
    26    29    30   ar
    27    30    31   ar
    28     4     7    1
    29     7     8    1
    30     8     9    2
    31    13    14   ar
    32    14    15   ar
    33    25    21    1
    34    15    10   ar
    35     8     1   am
    36    31    26   ar
@<TRIPOS>MOLECULE
*****
 33 36 0 0 0
SMALL
GASTEIGER

@<TRIPOS>ATOM
      1 N         141.3200  143.8573  158.3973 N.am    1  UNL1       -0.2555
      2 C         141.6203  145.3032  158.1342 C.3     1  UNL1        0.1197
      3 C         140.7663  146.0852  157.1808 C.3     1  UNL1        0.1160
      4 N         139.6118  145.4213  156.4904 N.am    1  UNL1       -0.2660
      5 C         138.7578  146.2033  155.5370 C.2     1  UNL1        0.2494
      6 O         137.6034  145.5394  154.8466 O.2     1  UNL1       -0.2699
      7 C         139.3115  143.9754  156.7535 C.3     1  UNL1        0.1799
      8 C         140.1656  143.1934  157.7070 C.2     1  UNL1        0.2497
      9 O         139.8652  141.7475  157.9701 O.2     1  UNL1       -0.2727
     10 C         143.8821  141.5113  161.2577 C.ar    1  UNL1        0.1386
     11 C         142.4334  141.7461  161.5680 C.ar    1  UNL1        0.0382
     12 C         141.5794  142.5281  160.6145 C.ar    1  UNL1        0.0180
     13 C         142.1741  143.0753  159.3508 C.ar    1  UNL1        0.0541
     14 C         143.6227  142.8405  159.0405 C.ar    1  UNL1        0.0180
     15 C         144.4767  142.0585  159.9940 C.ar    1  UNL1        0.0382
     16 O         144.7361  140.7292  162.2112 O.3     1  UNL1       -0.4754
     17 C         144.8444  141.1568  163.6448 C.3     1  UNL1        0.2068
     18 C         145.2070  142.5733  163.9797 C.3     1  UNL1        0.0646
     19 C         144.3353  143.3725  164.9025 C.3     1  UNL1        0.0759
     20 C         141.3568  142.3215  165.7230 C.3     1  UNL1        0.0173
     21 C         141.6661  143.4502  164.7848 C.3     1  UNL1        0.0576
     22 C         140.6605  144.2941  164.0590 C.3     1  UNL1        0.0174
     23 C         141.4081  145.2987  163.2333 C.3     1  UNL1        0.0187
     24 C         142.8757  145.0758  163.4487 C.3     1  UNL1        0.0721
     25 N         143.0351  143.9333  164.4076 N.3     1  UNL1       -0.2738
     26 C         139.0581  147.6491  155.2739 C.ar    1  UNL1        0.0536
     27 C         138.4104  148.7137  156.1088 C.ar    1  UNL1        0.0052
     28 C         138.7108  150.1596  155.8457 C.ar    1  UNL1        0.0104
     29 C         139.6589  150.5409  154.7477 C.ar    1  UNL1        0.0685
     30 C         140.3066  149.4763  153.9127 C.ar    1  UNL1        0.0104
     31 C         140.0062  148.0305  154.1758 C.ar    1  UNL1        0.0052
     32 C         139.9592  151.9867  154.4846 C.1     1  UNL1        0.1004
     33 N         140.2596  153.4327  154.2214 N.1     1  UNL1       -0.1908
@<TRIPOS>BOND
     1    21    20    1
     2    21    22    1
     3    22    23    1
     4    23    24    1
     5    24    25    1
     6    25    19    1
     7    19    18    1
     8    18    17    1
     9    17    16    1
    10    16    10    1
    11    10    11   ar
    12    11    12   ar
    13    12    13   ar
    14    13     1    1
    15     1     2    1
    16     2     3    1
    17     3     4    1
    18     4     5   am
    19     5     6    2
    20     5    26    1
    21    26    27   ar
    22    27    28   ar
    23    28    29   ar
    24    29    32    1
    25    32    33    3
    26    29    30   ar
    27    30    31   ar
    28     4     7    1
    29     7     8    1
    30     8     9    2
    31    13    14   ar
    32    14    15   ar
    33    25    21    1
    34    15    10   ar
    35     8     1   am
    36    31    26   ar
@<TRIPOS>MOLECULE
*****
 33 36 0 0 0
SMALL
GASTEIGER

@<TRIPOS>ATOM
      1 N         142.8658  140.8981  161.7308 N.am    1  UNL1       -0.2555
      2 C         142.1276  141.6762  162.7794 C.3     1  UNL1        0.1197
      3 C         142.1351  141.2085  164.2047 C.3     1  UNL1        0.1160
      4 N         142.8807  139.9627  164.5813 N.am    1  UNL1       -0.2660
      5 C         142.8882  139.4950  166.0064 C.2     1  UNL1        0.2494
      6 O         143.6339  138.2491  166.3830 O.2     1  UNL1       -0.2699
      7 C         143.6189  139.1845  163.5326 C.3     1  UNL1        0.1799
      8 C         143.6114  139.6522  162.1074 C.2     1  UNL1        0.2497
      9 O         144.3497  138.8741  161.0588 O.2     1  UNL1       -0.2727
     10 C         142.8433  142.3010  157.4552 C.ar    1  UNL1        0.1386
     11 C         141.9795  141.1472  157.8704 C.ar    1  UNL1        0.0382
     12 C         141.9870  140.6795  159.2956 C.ar    1  UNL1        0.0180
     13 C         142.8583  141.3658  160.3056 C.ar    1  UNL1        0.0541
     14 C         143.7221  142.5196  159.8903 C.ar    1  UNL1        0.0180
     15 C         143.7146  142.9872  158.4651 C.ar    1  UNL1        0.0382
     16 O         142.8358  142.7687  156.0299 O.3     1  UNL1       -0.4754
     17 C         141.5904  143.3632  155.4422 C.3     1  UNL1        0.2068
     18 C         141.2861  144.8181  155.6445 C.3     1  UNL1        0.0646
     19 C         140.1970  145.2322  156.5891 C.3     1  UNL1        0.0759
     20 C         138.6043  142.7248  157.9401 C.3     1  UNL1        0.0173
     21 C         139.5266  143.6698  158.6517 C.3     1  UNL1        0.0576
     22 C         139.8786  143.6282  160.1091 C.3     1  UNL1        0.0174
     23 C         140.8284  144.7551  160.3890 C.3     1  UNL1        0.0187
     24 C         141.0632  145.4931  159.1044 C.3     1  UNL1        0.0721
     25 N         140.2587  144.8224  158.0307 N.3     1  UNL1       -0.2738
     26 C         142.1501  140.2731  167.0550 C.ar    1  UNL1        0.0536
     27 C         140.7408  139.9024  167.4109 C.ar    1  UNL1        0.0052
     28 C         140.0026  140.6807  168.4595 C.ar    1  UNL1        0.0104
     29 C         140.6737  141.8295  169.1522 C.ar    1  UNL1        0.0685
     30 C         142.0829  142.2002  168.7963 C.ar    1  UNL1        0.0104
     31 C         142.8211  141.4220  167.7477 C.ar    1  UNL1        0.0052
     32 C         139.9355  142.6076  170.2008 C.1     1  UNL1        0.1004
     33 N         139.1973  143.3859  171.2494 N.1     1  UNL1       -0.1908
@<TRIPOS>BOND
     1    21    20    1
     2    21    22    1
     3    22    23    1
     4    23    24    1
     5    24    25    1
     6    25    19    1
     7    19    18    1
     8    18    17    1
     9    17    16    1
    10    16    10    1
    11    10    11   ar
    12    11    12   ar
    13    12    13   ar
    14    13     1    1
    15     1     2    1
    16     2     3    1
    17     3     4    1
    18     4     5   am
    19     5     6    2
    20     5    26    1
    21    26    27   ar
    22    27    28   ar
    23    28    29   ar
    24    29    32    1
    25    32    33    3
    26    29    30   ar
    27    30    31   ar
    28     4     7    1
    29     7     8    1
    30     8     9    2
    31    13    14   ar
    32    14    15   ar
    33    25    21    1
    34    15    10   ar
    35     8     1   am
    36    31    26   ar
