@<TRIPOS>MOLECULE
*****
 45 49 0 0 0
SMALL
GASTEIGER

@<TRIPOS>ATOM
      1 C         141.9272  137.6680  157.0499 C.ar    1  UNL1        0.0576
      2 C         140.6825  138.3969  156.6383 C.ar    1  UNL1        0.0388
      3 C         139.7072  137.7464  155.7026 C.ar    1  UNL1        0.1318
      4 N         139.9765  136.3670  155.1785 N.ar    1  UNL1       -0.2307
      5 C         141.2212  135.6380  155.5901 C.ar    1  UNL1        0.0828
      6 C         141.4906  134.2587  155.0659 C.ar    1  UNL1        0.0191
      7 C         142.7352  133.5298  155.4775 C.ar    1  UNL1        0.0015
      8 C         143.7106  134.1803  156.4132 C.ar    1  UNL1        0.0001
      9 C         143.4413  135.5596  156.9373 C.ar    1  UNL1        0.0016
     10 C         142.1966  136.2885  156.5258 C.ar    1  UNL1        0.0222
     11 N         138.4624  138.4753  155.2910 N.pl3   1  UNL1       -0.2932
     12 C         137.4918  137.8287  154.3477 C.3     1  UNL1        0.0922
     13 C         136.2472  138.5577  153.9362 C.3     1  UNL1        0.0216
     14 C         135.9731  139.9333  154.4680 C.3     1  UNL1        0.0048
     15 C         136.9437  140.5798  155.4112 C.3     1  UNL1        0.0216
     16 C         138.1884  139.8509  155.8228 C.3     1  UNL1        0.0922
     17 C         134.7284  140.6622  154.0564 C.3     1  UNL1        0.0174
     18 C         133.8925  141.3605  155.0877 C.3     1  UNL1        0.0722
     19 N         133.1009  140.5600  156.0789 N.3     1  UNL1       -0.2685
     20 C         133.4401  139.5890  157.1707 C.3     1  UNL1        0.1032
     21 C         131.9814  139.4278  157.4807 C.3     1  UNL1        0.1423
     22 O         131.1898  138.6273  158.4719 O.3     1  UNL1       -0.3816
     23 C         131.6421  140.3988  156.3889 C.3     1  UNL1        0.1032
     24 H         130.2440  138.8038  158.3485 H       1  UNL1        0.2105
     25 N         142.7650  138.1239  159.4665 N.am    1  UNL1       -0.3009
     26 C         142.9026  138.3185  157.9856 C.2     1  UNL1        0.2460
     27 O         144.0155  139.1635  157.4403 O.2     1  UNL1       -0.2701
     28 H         142.0346  137.5693  159.8244 H       1  UNL1        0.1497
     29 C         143.7404  138.7744  160.4022 C.3     1  UNL1        0.0896
     30 C         142.9349  138.8017  164.8294 C.3     1  UNL1        0.0197
     31 C         142.0794  137.9742  163.9166 C.3     1  UNL1        0.0018
     32 C         142.3479  137.9651  162.4409 C.3     1  UNL1        0.0017
     33 C         143.4719  138.7835  161.8780 C.3     1  UNL1        0.0196
     34 C         144.3274  139.6110  162.7908 C.3     1  UNL1        0.0017
     35 C         144.0589  139.6201  164.2666 C.3     1  UNL1        0.0018
     36 C         142.6665  138.8109  166.3053 C.3     1  UNL1        0.0926
     37 C         140.5451  140.1657  166.9487 C.2     1  UNL1        0.4014
     38 O         139.6822  139.1173  166.3115 O.2     1  UNL1       -0.2264
     39 N         142.0372  140.0125  166.9456 N.am    1  UNL1       -0.2707
     40 H         142.6036  140.7006  167.3639 H       1  UNL1        0.1527
     41 O         139.9159  141.3674  167.5891 O.3     1  UNL1       -0.4419
     42 C         140.8854  142.8687  168.7319 C.3     1  UNL1        0.0437
     43 C         140.1109  141.6251  169.0539 C.3     1  UNL1        0.1378
     44 C         139.3365  140.3816  169.3758 C.3     1  UNL1        0.0437
     45 C         140.3060  141.8829  170.5187 C.3     1  UNL1        0.0437
@<TRIPOS>BOND
     1    42    43    1
     2    43    44    1
     3    43    45    1
     4    43    41    1
     5    41    37    1
     6    37    38    2
     7    37    39   am
     8    39    36    1
     9    30    36    1
    10    30    31    1
    11    31    32    1
    12    32    33    1
    13    33    29    1
    14    29    25    1
    15    25    26   am
    16    26    27    2
    17    26     1    1
    18     1     2   ar
    19     2     3   ar
    20     3    11    1
    21    11    12    1
    22    12    13    1
    23    13    14    1
    24    14    17    1
    25    17    18    1
    26    18    19    1
    27    19    20    1
    28    20    21    1
    29    21    22    1
    30    21    23    1
    31    14    15    1
    32    15    16    1
    33     3     4   ar
    34     4     5   ar
    35     5     6   ar
    36     6     7   ar
    37     7     8   ar
    38     8     9   ar
    39     9    10   ar
    40    33    34    1
    41    34    35    1
    42    35    30    1
    43    10     1   ar
    44    16    11    1
    45    10     5   ar
    46    23    19    1
    47    39    40    1
    48    25    28    1
    49    22    24    1
@<TRIPOS>MOLECULE
*****
 45 49 0 0 0
SMALL
GASTEIGER

@<TRIPOS>ATOM
      1 C         141.8872  137.2955  157.2368 C.ar    1  UNL1        0.0576
      2 C         140.6593  138.0469  156.8154 C.ar    1  UNL1        0.0388
      3 C         139.8113  137.5285  155.6920 C.ar    1  UNL1        0.1318
      4 N         140.1912  136.2586  154.9899 N.ar    1  UNL1       -0.2307
      5 C         141.4192  135.5071  155.4112 C.ar    1  UNL1        0.0828
      6 C         141.7991  134.2372  154.7091 C.ar    1  UNL1        0.0191
      7 C         143.0270  133.4858  155.1305 C.ar    1  UNL1        0.0015
      8 C         143.8750  134.0042  156.2539 C.ar    1  UNL1        0.0001
      9 C         143.4951  135.2741  156.9560 C.ar    1  UNL1        0.0016
     10 C         142.2672  136.0256  156.5347 C.ar    1  UNL1        0.0222
     11 N         138.5833  138.2799  155.2706 N.pl3   1  UNL1       -0.2932
     12 C         138.3480  139.6738  155.7724 C.3     1  UNL1        0.0922
     13 C         137.1201  140.4252  155.3511 C.3     1  UNL1        0.0216
     14 C         136.1275  139.7828  154.4280 C.3     1  UNL1        0.0048
     15 C         136.3629  138.3889  153.9262 C.3     1  UNL1        0.0216
     16 C         137.5908  137.6375  154.3475 C.3     1  UNL1        0.0922
     17 C         134.8996  140.5342  154.0066 C.3     1  UNL1        0.0174
     18 C         134.1139  141.3147  155.0183 C.3     1  UNL1        0.0722
     19 N         133.2353  140.5984  156.0006 N.3     1  UNL1       -0.2685
     20 C         131.7607  140.5587  156.2723 C.3     1  UNL1        0.1032
     21 C         131.9927  139.5853  157.3898 C.3     1  UNL1        0.1423
     22 O         131.1141  138.8690  158.3721 O.3     1  UNL1       -0.3816
     23 C         133.4673  139.6250  157.1180 C.3     1  UNL1        0.1032
     24 H         131.6605  138.3121  158.9484 H       1  UNL1        0.2105
     25 N         142.7165  137.1263  159.6931 N.am    1  UNL1       -0.3009
     26 C         142.7352  137.8140  158.3602 C.2     1  UNL1        0.2460
     27 O         143.6018  139.0203  158.1507 O.2     1  UNL1       -0.2701
     28 H         142.1477  136.3346  159.8306 H       1  UNL1        0.1497
     29 C         143.5645  137.6448  160.8165 C.3     1  UNL1        0.0896
     30 C         141.6513  139.8162  164.2625 C.3     1  UNL1        0.0197
     31 C         141.0107  138.5788  163.7071 C.3     1  UNL1        0.0018
     32 C         141.6484  137.8550  162.5585 C.3     1  UNL1        0.0017
     33 C         142.9268  138.3686  161.9652 C.3     1  UNL1        0.0196
     34 C         143.5674  139.6060  162.5205 C.3     1  UNL1        0.0017
     35 C         142.9297  140.3298  163.6692 C.3     1  UNL1        0.0018
     36 C         141.0136  140.5400  165.4111 C.3     1  UNL1        0.0926
     37 C         138.6217  141.4671  164.9996 C.2     1  UNL1        0.4014
     38 O         138.0650  140.0784  165.1075 O.2     1  UNL1       -0.2264
     39 N         140.0960  141.6979  165.1515 N.am    1  UNL1       -0.2707
     40 H         140.4614  142.6093  165.0807 H       1  UNL1        0.1527
     41 O         137.7041  142.6249  164.7400 O.3     1  UNL1       -0.4419
     42 C         137.8606  142.8470  162.6362 C.3     1  UNL1        0.0437
     43 C         138.1317  143.7288  163.8188 C.3     1  UNL1        0.1378
     44 C         138.4028  144.6106  165.0015 C.3     1  UNL1        0.0437
     45 C         138.5593  144.8328  162.8977 C.3     1  UNL1        0.0437
@<TRIPOS>BOND
     1    42    43    1
     2    43    44    1
     3    43    45    1
     4    43    41    1
     5    41    37    1
     6    37    38    2
     7    37    39   am
     8    39    36    1
     9    30    36    1
    10    30    31    1
    11    31    32    1
    12    32    33    1
    13    33    29    1
    14    29    25    1
    15    25    26   am
    16    26    27    2
    17    26     1    1
    18     1     2   ar
    19     2     3   ar
    20     3    11    1
    21    11    12    1
    22    12    13    1
    23    13    14    1
    24    14    17    1
    25    17    18    1
    26    18    19    1
    27    19    20    1
    28    20    21    1
    29    21    22    1
    30    21    23    1
    31    14    15    1
    32    15    16    1
    33     3     4   ar
    34     4     5   ar
    35     5     6   ar
    36     6     7   ar
    37     7     8   ar
    38     8     9   ar
    39     9    10   ar
    40    33    34    1
    41    34    35    1
    42    35    30    1
    43    10     1   ar
    44    16    11    1
    45    10     5   ar
    46    23    19    1
    47    39    40    1
    48    25    28    1
    49    22    24    1
@<TRIPOS>MOLECULE
*****
 45 49 0 0 0
SMALL
GASTEIGER

@<TRIPOS>ATOM
      1 C         141.9572  137.6487  156.9009 C.ar    1  UNL1        0.0576
      2 C         140.7027  138.3833  156.5315 C.ar    1  UNL1        0.0388
      3 C         139.7100  137.7515  155.6012 C.ar    1  UNL1        0.1318
      4 N         139.9718  136.3851  155.0404 N.ar    1  UNL1       -0.2307
      5 C         141.2264  135.6505  155.4099 C.ar    1  UNL1        0.0828
      6 C         141.4882  134.2842  154.8491 C.ar    1  UNL1        0.0191
      7 C         142.7428  133.5497  155.2185 C.ar    1  UNL1        0.0015
      8 C         143.7355  134.1815  156.1488 C.ar    1  UNL1        0.0001
      9 C         143.4736  135.5478  156.7096 C.ar    1  UNL1        0.0016
     10 C         142.2191  136.2823  156.3401 C.ar    1  UNL1        0.0222
     11 N         138.4554  138.4861  155.2318 N.pl3   1  UNL1       -0.2932
     12 C         138.2581  139.9047  155.6772 C.3     1  UNL1        0.0922
     13 C         137.0036  140.6393  155.3078 C.3     1  UNL1        0.0216
     14 C         135.9463  139.9551  154.4928 C.3     1  UNL1        0.0048
     15 C         136.1435  138.5365  154.0474 C.3     1  UNL1        0.0216
     16 C         137.3981  137.8020  154.4168 C.3     1  UNL1        0.0922
     17 C         134.6917  140.6898  154.1234 C.3     1  UNL1        0.0174
     18 C         133.8780  141.3662  155.1865 C.3     1  UNL1        0.0722
     19 N         133.0784  140.5457  156.1547 N.3     1  UNL1       -0.2685
     20 C         133.4104  139.5957  157.2670 C.3     1  UNL1        0.1032
     21 C         131.9476  139.3852  157.5240 C.3     1  UNL1        0.1423
     22 O         131.1480  138.5647  158.4922 O.3     1  UNL1       -0.3816
     23 C         131.6156  140.3352  156.4117 C.3     1  UNL1        0.1032
     24 H         130.2019  138.7067  158.3321 H       1  UNL1        0.2105
     25 N         142.8190  138.0855  159.3127 N.am    1  UNL1       -0.3009
     26 C         142.9499  138.2805  157.8312 C.2     1  UNL1        0.2460
     27 O         144.0735  139.1074  157.2799 O.2     1  UNL1       -0.2701
     28 H         142.0816  137.5428  159.6744 H       1  UNL1        0.1497
     29 C         143.8117  138.7173  160.2429 C.3     1  UNL1        0.0896
     30 C         143.0478  142.8350  161.8893 C.3     1  UNL1        0.0197
     31 C         142.5748  142.4787  160.5112 C.3     1  UNL1        0.0018
     32 C         142.8295  141.1061  159.9624 C.3     1  UNL1        0.0017
     33 C         143.5571  140.0899  160.7918 C.3     1  UNL1        0.0196
     34 C         144.0300  140.4462  162.1699 C.3     1  UNL1        0.0017
     35 C         143.7754  141.8188  162.7187 C.3     1  UNL1        0.0018
     36 C         142.7931  144.2076  162.4381 C.3     1  UNL1        0.0926
     37 C         140.3552  145.1046  162.4809 C.2     1  UNL1        0.4014
     38 O         140.4506  145.4334  161.0205 O.2     1  UNL1       -0.2264
     39 N         141.5265  144.4917  163.1897 N.am    1  UNL1       -0.2707
     40 H         141.4639  144.2759  164.1482 H       1  UNL1        0.1527
     41 O         139.0885  145.3887  163.2325 O.3     1  UNL1       -0.4419
     42 C         138.0502  143.6524  162.5944 C.3     1  UNL1        0.0437
     43 C         138.3605  144.2742  163.9237 C.3     1  UNL1        0.1378
     44 C         138.6708  144.8959  165.2530 C.3     1  UNL1        0.0437
     45 C         137.6325  143.1596  164.6150 C.3     1  UNL1        0.0437
@<TRIPOS>BOND
     1    42    43    1
     2    43    44    1
     3    43    45    1
     4    43    41    1
     5    41    37    1
     6    37    38    2
     7    37    39   am
     8    39    36    1
     9    30    36    1
    10    30    31    1
    11    31    32    1
    12    32    33    1
    13    33    29    1
    14    29    25    1
    15    25    26   am
    16    26    27    2
    17    26     1    1
    18     1     2   ar
    19     2     3   ar
    20     3    11    1
    21    11    12    1
    22    12    13    1
    23    13    14    1
    24    14    17    1
    25    17    18    1
    26    18    19    1
    27    19    20    1
    28    20    21    1
    29    21    22    1
    30    21    23    1
    31    14    15    1
    32    15    16    1
    33     3     4   ar
    34     4     5   ar
    35     5     6   ar
    36     6     7   ar
    37     7     8   ar
    38     8     9   ar
    39     9    10   ar
    40    33    34    1
    41    34    35    1
    42    35    30    1
    43    10     1   ar
    44    16    11    1
    45    10     5   ar
    46    23    19    1
    47    39    40    1
    48    25    28    1
    49    22    24    1
@<TRIPOS>MOLECULE
*****
 45 49 0 0 0
SMALL
GASTEIGER

@<TRIPOS>ATOM
      1 C         141.0757  138.6238  158.0657 C.ar    1  UNL1        0.0576
      2 C         141.3458  137.2451  157.5402 C.ar    1  UNL1        0.0388
      3 C         142.6138  136.9634  156.7901 C.ar    1  UNL1        0.1318
      4 N         143.6118  138.0605  156.5654 N.ar    1  UNL1       -0.2307
      5 C         143.3417  139.4393  157.0909 C.ar    1  UNL1        0.0828
      6 C         144.3397  140.5363  156.8662 C.ar    1  UNL1        0.0191
      7 C         144.0696  141.9150  157.3917 C.ar    1  UNL1        0.0015
      8 C         142.8016  142.1967  158.1418 C.ar    1  UNL1        0.0001
      9 C         141.8036  141.0997  158.3665 C.ar    1  UNL1        0.0016
     10 C         142.0737  139.7210  157.8410 C.ar    1  UNL1        0.0222
     11 N         142.8839  135.5846  156.2646 N.pl3   1  UNL1       -0.2932
     12 C         143.6741  134.6102  157.0867 C.3     1  UNL1        0.0922
     13 C         143.9441  133.2314  156.5612 C.3     1  UNL1        0.0216
     14 C         143.4240  132.8272  155.2136 C.3     1  UNL1        0.0048
     15 C         142.6338  133.8017  154.3915 C.3     1  UNL1        0.0216
     16 C         142.3637  135.1804  154.9170 C.3     1  UNL1        0.0922
     17 C         143.6940  131.4484  154.6881 C.3     1  UNL1        0.0174
     18 C         144.7164  130.5779  155.3566 C.3     1  UNL1        0.0722
     19 N         144.3175  129.6986  156.5045 N.3     1  UNL1       -0.2685
     20 C         144.7807  128.3754  157.0379 C.3     1  UNL1        0.1032
     21 C         143.7533  128.4550  158.1279 C.3     1  UNL1        0.1423
     22 O         143.3544  127.5757  159.2758 O.3     1  UNL1       -0.3816
     23 C         143.2900  129.7782  157.5945 C.3     1  UNL1        0.1032
     24 H         142.6257  127.9910  159.7631 H       1  UNL1        0.2105
     25 N         139.7202  138.6014  160.2820 N.am    1  UNL1       -0.3009
     26 C         139.8076  138.9055  158.8158 C.2     1  UNL1        0.2460
     27 O         138.6269  139.4913  158.0996 O.2     1  UNL1       -0.2701
     28 H         140.4952  138.2169  160.7520 H       1  UNL1        0.1497
     29 C         138.4522  138.8830  161.0321 C.3     1  UNL1        0.0896
     30 C         138.5006  139.1151  165.5259 C.3     1  UNL1        0.0197
     31 C         138.8862  137.8399  164.8366 C.3     1  UNL1        0.0018
     32 C         138.8701  137.7626  163.3387 C.3     1  UNL1        0.0017
     33 C         138.4683  138.9604  162.5301 C.3     1  UNL1        0.0196
     34 C         138.0828  140.2356  163.2194 C.3     1  UNL1        0.0017
     35 C         138.0989  140.3130  164.7173 C.3     1  UNL1        0.0018
     36 C         138.5168  139.1925  167.0238 C.3     1  UNL1        0.0926
     37 C         139.5129  140.2536  169.1760 C.2     1  UNL1        0.4014
     38 O         138.2554  139.9200  169.9225 O.2     1  UNL1       -0.2264
     39 N         139.6436  139.8898  167.7267 N.am    1  UNL1       -0.2707
     40 H         140.4690  140.1088  167.2367 H       1  UNL1        0.1527
     41 O         140.6397  140.9509  169.8788 O.3     1  UNL1       -0.4419
     42 C         142.6086  140.3789  169.3346 C.3     1  UNL1        0.0437
     43 C         141.7452  141.5795  169.0835 C.3     1  UNL1        0.1378
     44 C         140.8819  142.7801  168.8323 C.3     1  UNL1        0.0437
     45 C         142.8507  142.2082  168.2880 C.3     1  UNL1        0.0437
@<TRIPOS>BOND
     1    42    43    1
     2    43    44    1
     3    43    45    1
     4    43    41    1
     5    41    37    1
     6    37    38    2
     7    37    39   am
     8    39    36    1
     9    30    36    1
    10    30    31    1
    11    31    32    1
    12    32    33    1
    13    33    29    1
    14    29    25    1
    15    25    26   am
    16    26    27    2
    17    26     1    1
    18     1     2   ar
    19     2     3   ar
    20     3    11    1
    21    11    12    1
    22    12    13    1
    23    13    14    1
    24    14    17    1
    25    17    18    1
    26    18    19    1
    27    19    20    1
    28    20    21    1
    29    21    22    1
    30    21    23    1
    31    14    15    1
    32    15    16    1
    33     3     4   ar
    34     4     5   ar
    35     5     6   ar
    36     6     7   ar
    37     7     8   ar
    38     8     9   ar
    39     9    10   ar
    40    33    34    1
    41    34    35    1
    42    35    30    1
    43    10     1   ar
    44    16    11    1
    45    10     5   ar
    46    23    19    1
    47    39    40    1
    48    25    28    1
    49    22    24    1
@<TRIPOS>MOLECULE
*****
 45 49 0 0 0
SMALL
GASTEIGER

@<TRIPOS>ATOM
      1 C         140.9308  138.6928  158.3493 C.ar    1  UNL1        0.0576
      2 C         141.1158  137.3965  157.6176 C.ar    1  UNL1        0.0388
      3 C         142.3703  137.1507  156.8328 C.ar    1  UNL1        0.1318
      4 N         143.4397  138.2011  156.7797 N.ar    1  UNL1       -0.2307
      5 C         143.2547  139.4974  157.5114 C.ar    1  UNL1        0.0828
      6 C         144.3242  140.5478  157.4583 C.ar    1  UNL1        0.0191
      7 C         144.1392  141.8441  158.1900 C.ar    1  UNL1        0.0015
      8 C         142.8847  142.0900  158.9748 C.ar    1  UNL1        0.0001
      9 C         141.8153  141.0396  159.0279 C.ar    1  UNL1        0.0016
     10 C         142.0003  139.7433  158.2962 C.ar    1  UNL1        0.0222
     11 N         142.5552  135.8543  156.1011 N.pl3   1  UNL1       -0.2932
     12 C         143.1820  134.6829  156.7973 C.3     1  UNL1        0.0922
     13 C         143.3669  133.3867  156.0656 C.3     1  UNL1        0.0216
     14 C         142.9251  133.2618  154.6376 C.3     1  UNL1        0.0048
     15 C         142.2983  134.4332  153.9413 C.3     1  UNL1        0.0216
     16 C         142.1133  135.7295  154.6731 C.3     1  UNL1        0.0922
     17 C         143.1100  131.9655  153.9059 C.3     1  UNL1        0.0174
     18 C         141.9979  131.4143  153.0637 C.3     1  UNL1        0.0722
     19 N         141.1486  130.2926  153.5836 N.3     1  UNL1       -0.2685
     20 C         140.5604  129.9377  154.9170 C.3     1  UNL1        0.1032
     21 C         139.9474  128.7062  154.3189 C.3     1  UNL1        0.1423
     22 O         139.0980  127.5845  154.8388 O.3     1  UNL1       -0.3816
     23 C         140.5355  129.0612  152.9855 C.3     1  UNL1        0.1032
     24 H         138.9042  126.9648  154.1181 H       1  UNL1        0.2105
     25 N         139.5749  138.4652  160.5538 N.am    1  UNL1       -0.3009
     26 C         139.6764  138.9387  159.1341 C.2     1  UNL1        0.2460
     27 O         138.5233  139.6580  158.4991 O.2     1  UNL1       -0.2701
     28 H         140.3317  137.9931  160.9705 H       1  UNL1        0.1497
     29 C         138.3205  138.7111  161.3386 C.3     1  UNL1        0.0896
     30 C         138.5092  139.1040  165.8174 C.3     1  UNL1        0.0197
     31 C         138.8396  137.7945  165.1648 C.3     1  UNL1        0.0018
     32 C         138.7767  137.6635  163.6719 C.3     1  UNL1        0.0017
     33 C         138.3834  138.8421  162.8316 C.3     1  UNL1        0.0196
     34 C         138.0529  140.1516  163.4841 C.3     1  UNL1        0.0017
     35 C         138.1159  140.2826  164.9770 C.3     1  UNL1        0.0018
     36 C         138.5721  139.2350  167.3104 C.3     1  UNL1        0.0926
     37 C         139.3847  140.5322  169.4097 C.2     1  UNL1        0.4014
     38 O         138.4109  139.7692  170.2580 O.2     1  UNL1       -0.2264
     39 N         139.4653  140.2651  167.9359 N.am    1  UNL1       -0.2707
     40 H         140.1044  140.7658  167.3791 H       1  UNL1        0.1527
     41 O         140.2779  141.5622  170.0352 O.3     1  UNL1       -0.4419
     42 C         141.7056  140.0139  170.2884 C.3     1  UNL1        0.0437
     43 C         141.7663  141.4566  169.8823 C.3     1  UNL1        0.1378
     44 C         141.8270  142.8992  169.4762 C.3     1  UNL1        0.0437
     45 C         143.2548  141.3510  169.7294 C.3     1  UNL1        0.0437
@<TRIPOS>BOND
     1    42    43    1
     2    43    44    1
     3    43    45    1
     4    43    41    1
     5    41    37    1
     6    37    38    2
     7    37    39   am
     8    39    36    1
     9    30    36    1
    10    30    31    1
    11    31    32    1
    12    32    33    1
    13    33    29    1
    14    29    25    1
    15    25    26   am
    16    26    27    2
    17    26     1    1
    18     1     2   ar
    19     2     3   ar
    20     3    11    1
    21    11    12    1
    22    12    13    1
    23    13    14    1
    24    14    17    1
    25    17    18    1
    26    18    19    1
    27    19    20    1
    28    20    21    1
    29    21    22    1
    30    21    23    1
    31    14    15    1
    32    15    16    1
    33     3     4   ar
    34     4     5   ar
    35     5     6   ar
    36     6     7   ar
    37     7     8   ar
    38     8     9   ar
    39     9    10   ar
    40    33    34    1
    41    34    35    1
    42    35    30    1
    43    10     1   ar
    44    16    11    1
    45    10     5   ar
    46    23    19    1
    47    39    40    1
    48    25    28    1
    49    22    24    1
@<TRIPOS>MOLECULE
*****
 45 49 0 0 0
SMALL
GASTEIGER

@<TRIPOS>ATOM
      1 C         142.4932  137.3802  157.2867 C.ar    1  UNL1        0.0576
      2 C         143.1144  136.0344  157.0567 C.ar    1  UNL1        0.0388
      3 C         142.4439  135.0435  156.1521 C.ar    1  UNL1        0.1318
      4 N         141.1521  135.3983  155.4773 N.ar    1  UNL1       -0.2307
      5 C         140.5308  136.7442  155.7072 C.ar    1  UNL1        0.0828
      6 C         139.2390  137.0990  155.0325 C.ar    1  UNL1        0.0191
      7 C         138.6178  138.4448  155.2624 C.ar    1  UNL1        0.0015
      8 C         139.2883  139.4357  156.1671 C.ar    1  UNL1        0.0001
      9 C         140.5801  139.0809  156.8418 C.ar    1  UNL1        0.0016
     10 C         141.2013  137.7351  156.6119 C.ar    1  UNL1        0.0222
     11 N         143.0652  133.6977  155.9222 N.pl3   1  UNL1       -0.2932
     12 C         144.1121  133.1839  156.8655 C.3     1  UNL1        0.0922
     13 C         144.7333  131.8381  156.6356 C.3     1  UNL1        0.0216
     14 C         144.3077  131.0061  155.4623 C.3     1  UNL1        0.0048
     15 C         143.2607  131.5199  154.5190 C.3     1  UNL1        0.0216
     16 C         142.6395  132.8657  154.7489 C.3     1  UNL1        0.0922
     17 C         144.9290  129.6603  155.2324 C.3     1  UNL1        0.0174
     18 C         144.4071  128.4586  155.9629 C.3     1  UNL1        0.0722
     19 N         144.7914  128.2256  157.3939 N.3     1  UNL1       -0.2685
     20 C         145.6410  127.2206  158.1139 C.3     1  UNL1        0.1032
     21 C         145.3349  127.8959  159.4179 C.3     1  UNL1        0.1423
     22 O         145.7192  127.6628  160.8489 O.3     1  UNL1       -0.3816
     23 C         144.4853  128.9008  158.6979 C.3     1  UNL1        0.1032
     24 H         145.3038  128.3370  161.4092 H       1  UNL1        0.2105
     25 N         143.1965  138.1326  159.6719 N.am    1  UNL1       -0.3009
     26 C         143.1637  138.3711  158.1913 C.2     1  UNL1        0.2460
     27 O         143.8016  139.6006  157.6154 O.2     1  UNL1       -0.2701
     28 H         142.7778  137.3257  160.0498 H       1  UNL1        0.1497
     29 C         143.8670  139.1235  160.5765 C.3     1  UNL1        0.0896
     30 C         143.1659  138.9486  165.0181 C.3     1  UNL1        0.0197
     31 C         142.2720  138.1844  164.0871 C.3     1  UNL1        0.0018
     32 C         142.5057  138.2427  162.6066 C.3     1  UNL1        0.0017
     33 C         143.6333  139.0653  162.0571 C.3     1  UNL1        0.0196
     34 C         144.5273  139.8294  162.9881 C.3     1  UNL1        0.0017
     35 C         144.2936  139.7711  164.4687 C.3     1  UNL1        0.0018
     36 C         142.9323  138.8903  166.4987 C.3     1  UNL1        0.0926
     37 C         141.7793  140.1636  168.4479 C.2     1  UNL1        0.4014
     38 O         143.0696  140.1609  169.2129 O.2     1  UNL1       -0.2264
     39 N         141.7107  139.5283  167.0909 N.am    1  UNL1       -0.2707
     40 H         140.8638  139.5301  166.5888 H       1  UNL1        0.1527
     41 O         140.5577  140.8016  169.0401 O.3     1  UNL1       -0.4419
     42 C         140.5992  141.8915  170.8595 C.3     1  UNL1        0.0437
     43 C         140.5735  142.2565  169.4049 C.3     1  UNL1        0.1378
     44 C         140.5477  142.6215  167.9502 C.3     1  UNL1        0.0437
     45 C         140.5892  143.7114  169.7696 C.3     1  UNL1        0.0437
@<TRIPOS>BOND
     1    42    43    1
     2    43    44    1
     3    43    45    1
     4    43    41    1
     5    41    37    1
     6    37    38    2
     7    37    39   am
     8    39    36    1
     9    30    36    1
    10    30    31    1
    11    31    32    1
    12    32    33    1
    13    33    29    1
    14    29    25    1
    15    25    26   am
    16    26    27    2
    17    26     1    1
    18     1     2   ar
    19     2     3   ar
    20     3    11    1
    21    11    12    1
    22    12    13    1
    23    13    14    1
    24    14    17    1
    25    17    18    1
    26    18    19    1
    27    19    20    1
    28    20    21    1
    29    21    22    1
    30    21    23    1
    31    14    15    1
    32    15    16    1
    33     3     4   ar
    34     4     5   ar
    35     5     6   ar
    36     6     7   ar
    37     7     8   ar
    38     8     9   ar
    39     9    10   ar
    40    33    34    1
    41    34    35    1
    42    35    30    1
    43    10     1   ar
    44    16    11    1
    45    10     5   ar
    46    23    19    1
    47    39    40    1
    48    25    28    1
    49    22    24    1
@<TRIPOS>MOLECULE
*****
 45 49 0 0 0
SMALL
GASTEIGER

@<TRIPOS>ATOM
      1 C         143.7672  142.7650  159.5598 C.ar    1  UNL1        0.0576
      2 C         144.7823  142.5739  158.4721 C.ar    1  UNL1        0.0388
      3 C         144.3385  142.4592  157.0438 C.ar    1  UNL1        0.1318
      4 N         142.8797  142.5357  156.7032 N.ar    1  UNL1       -0.2307
      5 C         141.8646  142.7268  157.7909 C.ar    1  UNL1        0.0828
      6 C         140.4058  142.8033  157.4503 C.ar    1  UNL1        0.0191
      7 C         139.3908  142.9944  158.5380 C.ar    1  UNL1        0.0015
      8 C         139.8345  143.1091  159.9663 C.ar    1  UNL1        0.0001
      9 C         141.2933  143.0326  160.3069 C.ar    1  UNL1        0.0016
     10 C         142.3083  142.8415  159.2192 C.ar    1  UNL1        0.0222
     11 N         145.3537  142.2680  155.9561 N.pl3   1  UNL1       -0.2932
     12 C         144.9108  142.1643  154.5268 C.3     1  UNL1        0.0922
     13 C         145.9260  141.9732  153.4391 C.3     1  UNL1        0.0216
     14 C         147.3839  141.8858  153.7809 C.3     1  UNL1        0.0048
     15 C         147.8267  141.9895  155.2102 C.3     1  UNL1        0.0216
     16 C         146.8116  142.1806  156.2979 C.3     1  UNL1        0.0922
     17 C         148.3990  141.6946  152.6932 C.3     1  UNL1        0.0174
     18 C         149.5332  142.6652  152.5468 C.3     1  UNL1        0.0722
     19 N         150.8982  142.3057  153.0543 N.3     1  UNL1       -0.2685
     20 C         151.6995  142.6467  154.2756 C.3     1  UNL1        0.1032
     21 C         152.8287  141.7973  153.7721 C.3     1  UNL1        0.1423
     22 O         154.1936  141.4378  154.2796 O.3     1  UNL1       -0.3816
     23 C         152.0273  141.4563  152.5508 C.3     1  UNL1        0.1032
     24 H         154.6291  140.8470  153.6453 H       1  UNL1        0.2105
     25 N         145.0184  141.7809  161.6130 N.am    1  UNL1       -0.3009
     26 C         144.2109  142.8797  160.9880 C.2     1  UNL1        0.2460
     27 O         143.8471  144.0932  161.7913 O.2     1  UNL1       -0.2701
     28 H         145.2572  140.9845  161.0858 H       1  UNL1        0.1497
     29 C         145.4622  141.8956  163.0413 C.3     1  UNL1        0.0896
     30 C         143.0589  139.9447  166.3075 C.3     1  UNL1        0.0197
     31 C         143.8652  139.1021  165.3643 C.3     1  UNL1        0.0018
     32 C         144.6663  139.7524  164.2756 C.3     1  UNL1        0.0017
     33 C         144.6610  141.2453  164.1301 C.3     1  UNL1        0.0196
     34 C         143.8546  142.0879  165.0733 C.3     1  UNL1        0.0017
     35 C         143.0536  141.4376  166.1620 C.3     1  UNL1        0.0018
     36 C         142.2577  139.2944  167.3963 C.3     1  UNL1        0.0926
     37 C         142.0929  140.4016  169.7408 C.2     1  UNL1        0.4014
     38 O         143.4244  139.8179  170.1100 O.2     1  UNL1       -0.2264
     39 N         141.5095  140.1398  168.3840 N.am    1  UNL1       -0.2707
     40 H         140.6356  140.5229  168.1416 H       1  UNL1        0.1527
     41 O         141.3448  141.2470  170.7285 O.3     1  UNL1       -0.4419
     42 C         142.3315  143.0686  170.2727 C.3     1  UNL1        0.0437
     43 C         140.8997  142.6280  170.3483 C.3     1  UNL1        0.1378
     44 C         139.4679  142.1874  170.4239 C.3     1  UNL1        0.0437
     45 C         140.4545  144.0091  169.9681 C.3     1  UNL1        0.0437
@<TRIPOS>BOND
     1    42    43    1
     2    43    44    1
     3    43    45    1
     4    43    41    1
     5    41    37    1
     6    37    38    2
     7    37    39   am
     8    39    36    1
     9    30    36    1
    10    30    31    1
    11    31    32    1
    12    32    33    1
    13    33    29    1
    14    29    25    1
    15    25    26   am
    16    26    27    2
    17    26     1    1
    18     1     2   ar
    19     2     3   ar
    20     3    11    1
    21    11    12    1
    22    12    13    1
    23    13    14    1
    24    14    17    1
    25    17    18    1
    26    18    19    1
    27    19    20    1
    28    20    21    1
    29    21    22    1
    30    21    23    1
    31    14    15    1
    32    15    16    1
    33     3     4   ar
    34     4     5   ar
    35     5     6   ar
    36     6     7   ar
    37     7     8   ar
    38     8     9   ar
    39     9    10   ar
    40    33    34    1
    41    34    35    1
    42    35    30    1
    43    10     1   ar
    44    16    11    1
    45    10     5   ar
    46    23    19    1
    47    39    40    1
    48    25    28    1
    49    22    24    1
@<TRIPOS>MOLECULE
*****
 45 49 0 0 0
SMALL
GASTEIGER

@<TRIPOS>ATOM
      1 C         142.3882  137.3806  157.4160 C.ar    1  UNL1        0.0576
      2 C         143.0141  136.0355  157.1949 C.ar    1  UNL1        0.0388
      3 C         142.3654  135.0494  156.2692 C.ar    1  UNL1        0.1318
      4 N         141.0908  135.4084  155.5647 N.ar    1  UNL1       -0.2307
      5 C         140.4648  136.7536  155.7857 C.ar    1  UNL1        0.0828
      6 C         139.1902  137.1126  155.0812 C.ar    1  UNL1        0.0191
      7 C         138.5643  138.4577  155.3022 C.ar    1  UNL1        0.0015
      8 C         139.2130  139.4438  156.2279 C.ar    1  UNL1        0.0001
      9 C         140.4876  139.0848  156.9324 C.ar    1  UNL1        0.0016
     10 C         141.1135  137.7397  156.7114 C.ar    1  UNL1        0.0222
     11 N         142.9914  133.7043  156.0482 N.pl3   1  UNL1       -0.2932
     12 C         142.8908  133.0416  154.7063 C.3     1  UNL1        0.0922
     13 C         143.5167  131.6965  154.4853 C.3     1  UNL1        0.0216
     14 C         144.2433  131.0141  155.6062 C.3     1  UNL1        0.0048
     15 C         144.3439  131.6768  156.9481 C.3     1  UNL1        0.0216
     16 C         143.7180  133.0219  157.1691 C.3     1  UNL1        0.0922
     17 C         144.8693  129.6690  155.3851 C.3     1  UNL1        0.0174
     18 C         144.0970  128.5875  154.6895 C.3     1  UNL1        0.0722
     19 N         142.6827  128.2961  155.0956 N.3     1  UNL1       -0.2685
     20 C         142.0038  127.9209  156.3795 C.3     1  UNL1        0.1032
     21 C         140.6826  127.8839  155.6700 C.3     1  UNL1        0.1423
     22 O         139.2684  127.5924  156.0762 O.3     1  UNL1       -0.3816
     23 C         141.3616  128.2590  154.3862 C.3     1  UNL1        0.1032
     24 H         138.6867  127.6754  155.3044 H       1  UNL1        0.2105
     25 N         142.9700  138.1586  159.8255 N.am    1  UNL1       -0.3009
     26 C         143.0369  138.3667  158.3416 C.2     1  UNL1        0.2460
     27 O         143.7526  139.5609  157.7832 O.2     1  UNL1       -0.2701
     28 H         142.5003  137.3749  160.1920 H       1  UNL1        0.1497
     29 C         143.6187  139.1447  160.7512 C.3     1  UNL1        0.0896
     30 C         143.2041  138.6585  165.2056 C.3     1  UNL1        0.0197
     31 C         142.1807  138.0590  164.2873 C.3     1  UNL1        0.0018
     32 C         142.3189  138.2211  162.8025 C.3     1  UNL1        0.0017
     33 C         143.4805  138.9827  162.2360 C.3     1  UNL1        0.0196
     34 C         144.5038  139.5821  163.1544 C.3     1  UNL1        0.0017
     35 C         144.3656  139.4200  164.6391 C.3     1  UNL1        0.0018
     36 C         143.0659  138.4964  166.6904 C.3     1  UNL1        0.0926
     37 C         142.7290  139.5457  169.0432 C.2     1  UNL1        0.4014
     38 O         142.9852  138.2098  169.6756 O.2     1  UNL1       -0.2264
     39 N         142.7694  139.6890  167.5506 N.am    1  UNL1       -0.2707
     40 H         142.6012  140.5657  167.1356 H       1  UNL1        0.1527
     41 O         142.4325  140.7382  169.9034 O.3     1  UNL1       -0.4419
     42 C         140.3179  140.7290  169.7354 C.3     1  UNL1        0.0437
     43 C         141.3984  141.7355  169.4722 C.3     1  UNL1        0.1378
     44 C         142.4790  142.7420  169.2089 C.3     1  UNL1        0.0437
     45 C         140.3643  142.7329  169.0409 C.3     1  UNL1        0.0437
@<TRIPOS>BOND
     1    42    43    1
     2    43    44    1
     3    43    45    1
     4    43    41    1
     5    41    37    1
     6    37    38    2
     7    37    39   am
     8    39    36    1
     9    30    36    1
    10    30    31    1
    11    31    32    1
    12    32    33    1
    13    33    29    1
    14    29    25    1
    15    25    26   am
    16    26    27    2
    17    26     1    1
    18     1     2   ar
    19     2     3   ar
    20     3    11    1
    21    11    12    1
    22    12    13    1
    23    13    14    1
    24    14    17    1
    25    17    18    1
    26    18    19    1
    27    19    20    1
    28    20    21    1
    29    21    22    1
    30    21    23    1
    31    14    15    1
    32    15    16    1
    33     3     4   ar
    34     4     5   ar
    35     5     6   ar
    36     6     7   ar
    37     7     8   ar
    38     8     9   ar
    39     9    10   ar
    40    33    34    1
    41    34    35    1
    42    35    30    1
    43    10     1   ar
    44    16    11    1
    45    10     5   ar
    46    23    19    1
    47    39    40    1
    48    25    28    1
    49    22    24    1
@<TRIPOS>MOLECULE
*****
 45 49 0 0 0
SMALL
GASTEIGER

@<TRIPOS>ATOM
      1 C         140.6771  144.0036  158.4166 C.ar    1  UNL1        0.0576
      2 C         140.9563  142.5382  158.2608 C.ar    1  UNL1        0.0388
      3 C         140.7077  141.8630  156.9446 C.ar    1  UNL1        0.1318
      4 N         140.1798  142.6534  155.7842 N.ar    1  UNL1       -0.2307
      5 C         139.9005  144.1190  155.9399 C.ar    1  UNL1        0.0828
      6 C         139.3726  144.9094  154.7795 C.ar    1  UNL1        0.0191
      7 C         139.0933  146.3748  154.9353 C.ar    1  UNL1        0.0015
      8 C         139.3420  147.0499  156.2515 C.ar    1  UNL1        0.0001
      9 C         139.8699  146.2596  157.4119 C.ar    1  UNL1        0.0016
     10 C         140.1491  144.7941  157.2561 C.ar    1  UNL1        0.0222
     11 N         140.9870  140.3975  156.7888 N.pl3   1  UNL1       -0.2932
     12 C         142.3327  139.8471  157.1576 C.3     1  UNL1        0.0922
     13 C         142.6119  138.3816  157.0018 C.3     1  UNL1        0.0216
     14 C         141.5454  137.4665  156.4773 C.3     1  UNL1        0.0048
     15 C         140.1997  138.0169  156.1085 C.3     1  UNL1        0.0216
     16 C         139.9204  139.4824  156.2643 C.3     1  UNL1        0.0922
     17 C         141.8247  136.0009  156.3215 C.3     1  UNL1        0.0174
     18 C         143.2310  135.5237  156.1107 C.3     1  UNL1        0.0722
     19 N         143.6878  134.2376  156.7331 N.3     1  UNL1       -0.2685
     20 C         144.1727  132.9188  156.2082 C.3     1  UNL1        0.1032
     21 C         144.3338  132.4187  157.6133 C.3     1  UNL1        0.1423
     22 O         144.7905  131.1327  158.2357 O.3     1  UNL1       -0.3816
     23 C         143.8488  133.7376  158.1381 C.3     1  UNL1        0.1032
     24 H         144.7493  131.2085  159.2018 H       1  UNL1        0.2105
     25 N         139.7715  145.1861  160.5453 N.am    1  UNL1       -0.3009
     26 C         140.9257  144.6788  159.7328 C.2     1  UNL1        0.2460
     27 O         142.3287  144.8465  160.2364 O.2     1  UNL1       -0.2701
     28 H         138.8507  145.0760  160.2148 H       1  UNL1        0.1497
     29 C         140.0201  145.8612  161.8615 C.3     1  UNL1        0.0896
     30 C         140.2350  143.4213  165.6365 C.3     1  UNL1        0.0197
     31 C         141.4395  143.5398  164.7505 C.3     1  UNL1        0.0018
     32 C         141.3679  144.3531  163.4922 C.3     1  UNL1        0.0017
     33 C         140.0917  145.0479  163.1199 C.3     1  UNL1        0.0196
     34 C         138.8872  144.9294  164.0059 C.3     1  UNL1        0.0017
     35 C         138.9588  144.1161  165.2642 C.3     1  UNL1        0.0018
     36 C         140.3066  142.6080  166.8949 C.3     1  UNL1        0.0926
     37 C         139.8538  140.1751  166.1036 C.2     1  UNL1        0.4014
     38 O         138.5895  140.6278  165.4354 O.2     1  UNL1       -0.2264
     39 N         140.7124  141.1652  166.8333 N.am    1  UNL1       -0.2707
     40 H         141.5422  140.8681  167.2719 H       1  UNL1        0.1527
     41 O         140.2596  138.7324  166.0420 O.3     1  UNL1       -0.4419
     42 C         141.8161  138.6871  164.6014 C.3     1  UNL1        0.0437
     43 C         140.4560  138.0645  164.7133 C.3     1  UNL1        0.1378
     44 C         139.0959  137.4420  164.8252 C.3     1  UNL1        0.0437
     45 C         140.6523  137.3967  163.3846 C.3     1  UNL1        0.0437
@<TRIPOS>BOND
     1    42    43    1
     2    43    44    1
     3    43    45    1
     4    43    41    1
     5    41    37    1
     6    37    38    2
     7    37    39   am
     8    39    36    1
     9    30    36    1
    10    30    31    1
    11    31    32    1
    12    32    33    1
    13    33    29    1
    14    29    25    1
    15    25    26   am
    16    26    27    2
    17    26     1    1
    18     1     2   ar
    19     2     3   ar
    20     3    11    1
    21    11    12    1
    22    12    13    1
    23    13    14    1
    24    14    17    1
    25    17    18    1
    26    18    19    1
    27    19    20    1
    28    20    21    1
    29    21    22    1
    30    21    23    1
    31    14    15    1
    32    15    16    1
    33     3     4   ar
    34     4     5   ar
    35     5     6   ar
    36     6     7   ar
    37     7     8   ar
    38     8     9   ar
    39     9    10   ar
    40    33    34    1
    41    34    35    1
    42    35    30    1
    43    10     1   ar
    44    16    11    1
    45    10     5   ar
    46    23    19    1
    47    39    40    1
    48    25    28    1
    49    22    24    1
