@<TRIPOS>MOLECULE
*****
 46 49 0 0 0
SMALL
GASTEIGER

@<TRIPOS>ATOM
      1 C         143.5893  137.6405  160.7890 C.3     1  UNL1        0.0307
      2 C         142.2099  138.2155  160.9176 C.ar    1  UNL1       -0.0244
      3 C         141.3002  137.7449  162.0135 C.ar    1  UNL1        0.0132
      4 C         139.9208  138.3199  162.1420 C.ar    1  UNL1        0.0846
      5 C         139.4510  139.3656  161.1746 C.ar    1  UNL1        0.1513
      6 C         140.3606  139.8362  160.0787 C.ar    1  UNL1        0.0336
      7 C         141.7400  139.2612  159.9502 C.ar    1  UNL1       -0.0232
      8 C         142.6497  139.7319  158.8542 C.3     1  UNL1        0.0255
      9 C         143.3852  141.0314  158.9963 C.3     1  UNL1        0.0259
     10 C         144.2948  141.5021  157.9004 C.3     1  UNL1        0.0938
     11 N         144.4689  140.6733  156.6623 N.am    1  UNL1       -0.2784
     12 C         145.3785  141.1440  155.5665 C.2     1  UNL1        0.2420
     13 O         145.5526  140.3152  154.3285 O.2     1  UNL1       -0.2734
     14 C         143.7334  139.3737  156.5202 C.3     1  UNL1        0.0938
     15 C         142.8237  138.9031  157.6162 C.3     1  UNL1        0.0259
     16 C         146.1141  142.4435  155.7086 C.3     1  UNL1        0.1587
     17 N         147.4669  142.4727  156.3558 N.3     1  UNL1       -0.2626
     18 C         147.6431  143.1224  157.6963 C.3     1  UNL1        0.0900
     19 C         148.6436  141.8522  155.6626 C.3     1  UNL1        0.0900
     20 N         139.0112  137.8492  163.2380 N.pl3   1  UNL1       -0.2801
     21 H         138.3706  137.1213  163.0675 H       1  UNL1        0.1552
     22 C         139.0775  138.4877  164.5937 C.ar    1  UNL1        0.2220
     23 N         138.2481  137.9450  165.7196 N.ar    1  UNL1       -0.2110
     24 C         138.3144  138.5835  167.0754 C.ar    1  UNL1        0.1160
     25 C         139.2101  139.7646  167.3051 C.ar    1  UNL1        0.1085
     26 CL        139.2764  140.4031  168.6608 Cl      1  UNL1       -0.0777
     27 C         140.0393  140.3073  166.1792 C.ar    1  UNL1        0.1472
     28 N         139.9730  139.6688  164.8235 N.ar    1  UNL1       -0.1976
     29 N         140.9350  141.4885  166.4089 N.pl3   1  UNL1       -0.2961
     30 H         141.5676  141.4872  167.1633 H       1  UNL1        0.1537
     31 C         140.8668  142.6715  165.4893 C.ar    1  UNL1        0.0667
     32 C         139.7125  143.6253  165.5785 C.ar    1  UNL1        0.0159
     33 C         139.6443  144.8083  164.6589 C.ar    1  UNL1        0.0014
     34 C         140.7305  145.0376  163.6500 C.ar    1  UNL1        0.0014
     35 C         141.8847  144.0839  163.5608 C.ar    1  UNL1        0.0196
     36 C         141.9529  142.9008  164.4805 C.ar    1  UNL1        0.1189
     37 S         143.1072  141.9470  164.3913 S.O2    1  UNL1        0.0082
     38 O         143.7096  142.5612  165.6200 O.2     1  UNL1       -0.1686
     39 O         142.5047  141.3328  163.1625 O.2     1  UNL1       -0.1686
     40 C         144.2615  140.9932  164.3020 C.3     1  UNL1        0.1340
     41 C         144.0570  139.5380  164.6032 C.3     1  UNL1        0.0257
     42 C         145.6202  141.4946  163.9117 C.3     1  UNL1        0.0257
     43 O         138.0716  139.9406  161.3031 O.3     1  UNL1       -0.4779
     44 C         137.8796  141.3032  161.9001 C.3     1  UNL1        0.1662
     45 C         138.2718  142.5246  161.1228 C.3     1  UNL1        0.0472
     46 C         137.2954  141.4444  163.2745 C.3     1  UNL1        0.0472
@<TRIPOS>BOND
     1     1     2    1
     2     2     3   ar
     3     3     4   ar
     4     4    20    1
     5    20    22    1
     6    22    23   ar
     7    23    24   ar
     8    24    25   ar
     9    25    26    1
    10    25    27   ar
    11    27    29    1
    12    29    31    1
    13    31    32   ar
    14    32    33   ar
    15    33    34   ar
    16    34    35   ar
    17    35    36   ar
    18    36    37    1
    19    37    38    2
    20    37    39    2
    21    37    40    1
    22    40    41    1
    23    40    42    1
    24    27    28   ar
    25     4     5   ar
    26     5    43    1
    27    43    44    1
    28    44    45    1
    29    44    46    1
    30     5     6   ar
    31     6     7   ar
    32     7     8    1
    33     8     9    1
    34     9    10    1
    35    10    11    1
    36    11    12   am
    37    12    13    2
    38    12    16    1
    39    16    17    1
    40    17    18    1
    41    17    19    1
    42    11    14    1
    43    14    15    1
    44     7     2   ar
    45    15     8    1
    46    28    22   ar
    47    36    31   ar
    48    20    21    1
    49    29    30    1
@<TRIPOS>MOLECULE
*****
 46 49 0 0 0
SMALL
GASTEIGER

@<TRIPOS>ATOM
      1 C         141.4293  141.9084  157.7794 C.3     1  UNL1        0.0307
      2 C         141.3669  140.7784  158.7638 C.ar    1  UNL1       -0.0244
      3 C         142.4643  140.5993  159.7706 C.ar    1  UNL1        0.0132
      4 C         142.4019  139.4693  160.7551 C.ar    1  UNL1        0.0846
      5 C         141.2421  138.5183  160.7327 C.ar    1  UNL1        0.1513
      6 C         140.1448  138.6974  159.7259 C.ar    1  UNL1        0.0336
      7 C         140.2072  139.8274  158.7415 C.ar    1  UNL1       -0.0232
      8 C         139.1097  140.0064  157.7346 C.3     1  UNL1        0.0255
      9 C         137.9106  140.8418  158.0728 C.3     1  UNL1        0.0259
     10 C         136.8132  141.0208  157.0660 C.3     1  UNL1        0.0938
     11 N         136.9149  140.3645  155.7210 N.am    1  UNL1       -0.2784
     12 C         135.8175  140.5436  154.7142 C.2     1  UNL1        0.2420
     13 O         135.9192  139.8873  153.3693 O.2     1  UNL1       -0.2734
     14 C         138.1140  139.5292  155.3828 C.3     1  UNL1        0.0938
     15 C         139.2114  139.3501  156.3897 C.3     1  UNL1        0.0259
     16 C         134.6184  141.3789  155.0524 C.3     1  UNL1        0.1587
     17 N         133.3760  140.7274  155.5834 N.3     1  UNL1       -0.2626
     18 C         133.4503  139.3626  156.2014 C.3     1  UNL1        0.0900
     19 C         132.0593  141.4406  155.4964 C.3     1  UNL1        0.0900
     20 N         143.4993  139.2902  161.7619 N.pl3   1  UNL1       -0.2801
     21 H         143.9967  138.4416  161.8022 H       1  UNL1        0.1552
     22 C         143.8388  140.4042  162.7073 C.ar    1  UNL1        0.2220
     23 N         145.2382  140.9417  162.7615 N.ar    1  UNL1       -0.2110
     24 C         145.5777  142.0557  163.7069 C.ar    1  UNL1        0.1160
     25 C         144.5177  142.6322  164.5982 C.ar    1  UNL1        0.1085
     26 CL        144.8572  143.7461  165.5436 Cl      1  UNL1       -0.0777
     27 C         143.1184  142.0947  164.5440 C.ar    1  UNL1        0.1472
     28 N         142.7789  140.9807  163.5985 N.ar    1  UNL1       -0.1976
     29 N         142.0585  142.6712  165.4352 N.pl3   1  UNL1       -0.2961
     30 H         142.1876  142.6806  166.4112 H       1  UNL1        0.1537
     31 C         140.8018  143.2333  164.8395 C.ar    1  UNL1        0.0667
     32 C         140.8596  144.4767  164.0026 C.ar    1  UNL1        0.0159
     33 C         139.6029  145.0388  163.4068 C.ar    1  UNL1        0.0014
     34 C         138.2885  144.3574  163.6480 C.ar    1  UNL1        0.0014
     35 C         138.2308  143.1140  164.4849 C.ar    1  UNL1        0.0196
     36 C         139.4875  142.5519  165.0807 C.ar    1  UNL1        0.1189
     37 S         139.4298  141.3084  165.9176 S.O2    1  UNL1        0.0082
     38 O         139.8957  142.0896  167.1104 O.2     1  UNL1       -0.1686
     39 O         138.9639  140.5272  164.7249 O.2     1  UNL1       -0.1686
     40 C         139.3721  140.0650  166.7546 C.3     1  UNL1        0.1340
     41 C         138.2850  139.0569  166.5261 C.3     1  UNL1        0.0257
     42 C         140.4014  139.8295  167.8199 C.3     1  UNL1        0.0257
     43 O         141.1797  137.3883  161.7171 O.3     1  UNL1       -0.4779
     44 C         140.4406  137.5606  163.0109 C.3     1  UNL1        0.1662
     45 C         138.9408  137.5790  163.0212 C.3     1  UNL1        0.0472
     46 C         141.2014  137.7146  164.2946 C.3     1  UNL1        0.0472
@<TRIPOS>BOND
     1     1     2    1
     2     2     3   ar
     3     3     4   ar
     4     4    20    1
     5    20    22    1
     6    22    23   ar
     7    23    24   ar
     8    24    25   ar
     9    25    26    1
    10    25    27   ar
    11    27    29    1
    12    29    31    1
    13    31    32   ar
    14    32    33   ar
    15    33    34   ar
    16    34    35   ar
    17    35    36   ar
    18    36    37    1
    19    37    38    2
    20    37    39    2
    21    37    40    1
    22    40    41    1
    23    40    42    1
    24    27    28   ar
    25     4     5   ar
    26     5    43    1
    27    43    44    1
    28    44    45    1
    29    44    46    1
    30     5     6   ar
    31     6     7   ar
    32     7     8    1
    33     8     9    1
    34     9    10    1
    35    10    11    1
    36    11    12   am
    37    12    13    2
    38    12    16    1
    39    16    17    1
    40    17    18    1
    41    17    19    1
    42    11    14    1
    43    14    15    1
    44     7     2   ar
    45    15     8    1
    46    28    22   ar
    47    36    31   ar
    48    20    21    1
    49    29    30    1
@<TRIPOS>MOLECULE
*****
 46 49 0 0 0
SMALL
GASTEIGER

@<TRIPOS>ATOM
      1 C         141.4550  141.9933  157.5197 C.3     1  UNL1        0.0307
      2 C         141.4547  140.8673  158.5108 C.ar    1  UNL1       -0.0244
      3 C         142.5978  140.7116  159.4694 C.ar    1  UNL1        0.0132
      4 C         142.5975  139.5857  160.4605 C.ar    1  UNL1        0.0846
      5 C         141.4540  138.6155  160.4929 C.ar    1  UNL1        0.1513
      6 C         140.3109  138.7712  159.5343 C.ar    1  UNL1        0.0336
      7 C         140.3112  139.8971  158.5433 C.ar    1  UNL1       -0.0232
      8 C         139.1680  140.0528  157.5846 C.3     1  UNL1        0.0255
      9 C         138.0056  140.9317  157.9401 C.3     1  UNL1        0.0259
     10 C         136.8624  141.0874  156.9815 C.3     1  UNL1        0.0938
     11 N         136.8816  140.3642  155.6674 N.am    1  UNL1       -0.2784
     12 C         135.7384  140.5199  154.7089 C.2     1  UNL1        0.2420
     13 O         135.7577  139.7967  153.3949 O.2     1  UNL1       -0.2734
     14 C         138.0440  139.4853  155.3120 C.3     1  UNL1        0.0938
     15 C         139.1872  139.3296  156.2706 C.3     1  UNL1        0.0259
     16 C         134.5760  141.3988  155.0643 C.3     1  UNL1        0.1587
     17 N         133.3405  140.8003  155.6686 N.3     1  UNL1       -0.2626
     18 C         132.0042  141.4388  155.4305 C.3     1  UNL1        0.0900
     19 C         133.4412  139.5633  156.5111 C.3     1  UNL1        0.0900
     20 N         143.7407  139.4300  161.4191 N.pl3   1  UNL1       -0.2801
     21 H         144.3580  138.6683  161.3295 H       1  UNL1        0.1552
     22 C         143.9433  140.4348  162.5142 C.ar    1  UNL1        0.2220
     23 N         145.3176  140.9617  162.8037 N.ar    1  UNL1       -0.2110
     24 C         145.5202  141.9666  163.8989 C.ar    1  UNL1        0.1160
     25 C         144.3485  142.4445  164.7044 C.ar    1  UNL1        0.1085
     26 CL        144.5511  143.4493  165.7995 Cl      1  UNL1       -0.0777
     27 C         142.9743  141.9175  164.4149 C.ar    1  UNL1        0.1472
     28 N         142.7717  140.9127  163.3198 N.ar    1  UNL1       -0.1976
     29 N         141.8026  142.3954  165.2204 N.pl3   1  UNL1       -0.2961
     30 H         141.8043  143.3034  165.6009 H       1  UNL1        0.1537
     31 C         140.6284  141.4898  165.4464 C.ar    1  UNL1        0.0667
     32 C         140.6502  140.5006  166.5738 C.ar    1  UNL1        0.0159
     33 C         139.4760  139.5951  166.7997 C.ar    1  UNL1        0.0014
     34 C         138.2799  139.6786  165.8982 C.ar    1  UNL1        0.0014
     35 C         138.2582  140.6678  164.7708 C.ar    1  UNL1        0.0196
     36 C         139.4325  141.5734  164.5449 C.ar    1  UNL1        0.1189
     37 S         139.4108  142.5626  163.4175 S.O2    1  UNL1        0.0082
     38 O         139.5426  141.4407  162.4306 O.2     1  UNL1       -0.1686
     39 O         139.2789  143.6845  164.4044 O.2     1  UNL1       -0.1686
     40 C         139.3890  143.5518  162.2901 C.3     1  UNL1        0.1340
     41 C         139.5896  143.0849  160.8787 C.3     1  UNL1        0.0257
     42 C         139.1667  145.0078  162.5740 C.3     1  UNL1        0.0257
     43 O         141.4537  137.4895  161.4840 O.3     1  UNL1       -0.4779
     44 C         140.7168  137.6336  162.7826 C.3     1  UNL1        0.1662
     45 C         141.4767  137.6796  164.0750 C.3     1  UNL1        0.0472
     46 C         139.2200  137.7317  162.7887 C.3     1  UNL1        0.0472
@<TRIPOS>BOND
     1     1     2    1
     2     2     3   ar
     3     3     4   ar
     4     4    20    1
     5    20    22    1
     6    22    23   ar
     7    23    24   ar
     8    24    25   ar
     9    25    26    1
    10    25    27   ar
    11    27    29    1
    12    29    31    1
    13    31    32   ar
    14    32    33   ar
    15    33    34   ar
    16    34    35   ar
    17    35    36   ar
    18    36    37    1
    19    37    38    2
    20    37    39    2
    21    37    40    1
    22    40    41    1
    23    40    42    1
    24    27    28   ar
    25     4     5   ar
    26     5    43    1
    27    43    44    1
    28    44    45    1
    29    44    46    1
    30     5     6   ar
    31     6     7   ar
    32     7     8    1
    33     8     9    1
    34     9    10    1
    35    10    11    1
    36    11    12   am
    37    12    13    2
    38    12    16    1
    39    16    17    1
    40    17    18    1
    41    17    19    1
    42    11    14    1
    43    14    15    1
    44     7     2   ar
    45    15     8    1
    46    28    22   ar
    47    36    31   ar
    48    20    21    1
    49    29    30    1
@<TRIPOS>MOLECULE
*****
 46 49 0 0 0
SMALL
GASTEIGER

@<TRIPOS>ATOM
      1 C         143.7950  138.8112  165.3013 C.3     1  UNL1        0.0307
      2 C         142.7742  138.7402  164.2045 C.ar    1  UNL1       -0.0244
      3 C         143.1806  138.3010  162.8290 C.ar    1  UNL1        0.0132
      4 C         142.1598  138.2300  161.7322 C.ar    1  UNL1        0.0846
      5 C         140.7327  138.5981  162.0109 C.ar    1  UNL1        0.1513
      6 C         140.3263  139.0373  163.3863 C.ar    1  UNL1        0.0336
      7 C         141.3471  139.1084  164.4831 C.ar    1  UNL1       -0.0232
      8 C         140.9406  139.5476  165.8587 C.3     1  UNL1        0.0255
      9 C         141.9345  140.2275  166.7531 C.3     1  UNL1        0.0259
     10 C         141.5281  140.6667  168.1285 C.3     1  UNL1        0.0938
     11 N         140.1278  140.4260  168.6096 N.am    1  UNL1       -0.2784
     12 C         139.7215  140.8652  169.9851 C.2     1  UNL1        0.2420
     13 O         138.3213  140.6245  170.4661 O.2     1  UNL1       -0.2734
     14 C         139.1340  139.7461  167.7152 C.3     1  UNL1        0.0938
     15 C         139.5404  139.3069  166.3397 C.3     1  UNL1        0.0259
     16 C         140.7153  141.5451  170.8795 C.3     1  UNL1        0.1587
     17 N         141.2930  142.8724  170.4865 N.3     1  UNL1       -0.2626
     18 C         142.7671  143.1171  170.6173 C.3     1  UNL1        0.0900
     19 C         140.3966  143.9550  169.9625 C.3     1  UNL1        0.0900
     20 N         142.5663  137.7908  160.3567 N.pl3   1  UNL1       -0.2801
     21 H         142.5421  136.8360  160.1176 H       1  UNL1        0.1552
     22 C         143.0095  138.8062  159.3456 C.ar    1  UNL1        0.2220
     23 N         143.1885  138.4072  157.9107 N.ar    1  UNL1       -0.2110
     24 C         143.6318  139.4226  156.8996 C.ar    1  UNL1        0.1160
     25 C         143.8961  140.8371  157.3233 C.ar    1  UNL1        0.1085
     26 CL        144.3394  141.8525  156.3122 Cl      1  UNL1       -0.0777
     27 C         143.7171  141.2360  158.7581 C.ar    1  UNL1        0.1472
     28 N         143.2739  140.2206  159.7693 N.ar    1  UNL1       -0.1976
     29 N         143.9815  142.6505  159.1819 N.pl3   1  UNL1       -0.2961
     30 H         144.9043  142.9926  159.2070 H       1  UNL1        0.1537
     31 C         142.8398  143.5438  159.5673 C.ar    1  UNL1        0.0667
     32 C         142.0395  144.2384  158.5057 C.ar    1  UNL1        0.0159
     33 C         140.8978  145.1317  158.8911 C.ar    1  UNL1        0.0014
     34 C         140.5563  145.3303  160.3382 C.ar    1  UNL1        0.0014
     35 C         141.3566  144.6356  161.3998 C.ar    1  UNL1        0.0196
     36 C         142.4983  143.7423  161.0143 C.ar    1  UNL1        0.1189
     37 S         143.2986  143.0477  162.0759 S.O2    1  UNL1        0.0082
     38 O         144.4193  144.0231  161.8694 O.2     1  UNL1       -0.1686
     39 O         142.1779  142.0722  162.2824 O.2     1  UNL1       -0.1686
     40 C         144.0989  142.3530  163.1376 C.3     1  UNL1        0.1340
     41 C         143.7753  142.5737  164.5856 C.3     1  UNL1        0.0257
     42 C         145.2226  141.4377  162.7512 C.3     1  UNL1        0.0257
     43 O         139.7119  138.5271  160.9141 O.3     1  UNL1       -0.4779
     44 C         138.9625  139.7607  160.5059 C.3     1  UNL1        0.1662
     45 C         139.7104  140.9639  160.0130 C.3     1  UNL1        0.0472
     46 C         137.4652  139.7911  160.5906 C.3     1  UNL1        0.0472
@<TRIPOS>BOND
     1     1     2    1
     2     2     3   ar
     3     3     4   ar
     4     4    20    1
     5    20    22    1
     6    22    23   ar
     7    23    24   ar
     8    24    25   ar
     9    25    26    1
    10    25    27   ar
    11    27    29    1
    12    29    31    1
    13    31    32   ar
    14    32    33   ar
    15    33    34   ar
    16    34    35   ar
    17    35    36   ar
    18    36    37    1
    19    37    38    2
    20    37    39    2
    21    37    40    1
    22    40    41    1
    23    40    42    1
    24    27    28   ar
    25     4     5   ar
    26     5    43    1
    27    43    44    1
    28    44    45    1
    29    44    46    1
    30     5     6   ar
    31     6     7   ar
    32     7     8    1
    33     8     9    1
    34     9    10    1
    35    10    11    1
    36    11    12   am
    37    12    13    2
    38    12    16    1
    39    16    17    1
    40    17    18    1
    41    17    19    1
    42    11    14    1
    43    14    15    1
    44     7     2   ar
    45    15     8    1
    46    28    22   ar
    47    36    31   ar
    48    20    21    1
    49    29    30    1
@<TRIPOS>MOLECULE
*****
 46 49 0 0 0
SMALL
GASTEIGER

@<TRIPOS>ATOM
      1 C         138.9827  138.1037  160.8140 C.3     1  UNL1        0.0307
      2 C         138.6664  139.2551  161.7220 C.ar    1  UNL1       -0.0244
      3 C         138.5084  139.0264  163.1960 C.ar    1  UNL1        0.0132
      4 C         138.1920  140.1777  164.1039 C.ar    1  UNL1        0.0846
      5 C         138.0337  141.5577  163.5378 C.ar    1  UNL1        0.1513
      6 C         138.1917  141.7864  162.0638 C.ar    1  UNL1        0.0336
      7 C         138.5080  140.6351  161.1559 C.ar    1  UNL1       -0.0232
      8 C         138.6661  140.8638  159.6818 C.3     1  UNL1        0.0255
      9 C         137.5011  140.6521  158.7609 C.3     1  UNL1        0.0259
     10 C         137.6591  140.8808  157.2869 C.3     1  UNL1        0.0938
     11 N         138.9820  141.3212  156.7338 N.am    1  UNL1       -0.2784
     12 C         139.1400  141.5499  155.2598 C.2     1  UNL1        0.2420
     13 O         140.4629  141.9902  154.7067 O.2     1  UNL1       -0.2734
     14 C         140.1470  141.5328  157.6547 C.3     1  UNL1        0.0938
     15 C         139.9890  141.3041  159.1287 C.3     1  UNL1        0.0259
     16 C         137.9750  141.3382  154.3389 C.3     1  UNL1        0.1587
     17 N         137.0305  142.4677  154.0525 N.3     1  UNL1       -0.2626
     18 C         135.9566  142.3034  153.0183 C.3     1  UNL1        0.0900
     19 C         137.1599  143.7616  154.8004 C.3     1  UNL1        0.0900
     20 N         138.0340  139.9490  165.5779 N.pl3   1  UNL1       -0.2801
     21 H         137.1428  139.7687  165.9554 H       1  UNL1        0.1552
     22 C         139.2339  139.9951  166.4769 C.ar    1  UNL1        0.2220
     23 N         139.0594  139.9213  167.9650 N.ar    1  UNL1       -0.2110
     24 C         140.2593  139.9674  168.8639 C.ar    1  UNL1        0.1160
     25 C         141.6336  140.0874  168.2749 C.ar    1  UNL1        0.1085
     26 CL        142.8335  140.1335  169.1738 Cl      1  UNL1       -0.0777
     27 C         141.8080  140.1612  166.7869 C.ar    1  UNL1        0.1472
     28 N         140.6081  140.1151  165.8879 N.ar    1  UNL1       -0.1976
     29 N         143.1823  140.2812  166.1978 N.pl3   1  UNL1       -0.2961
     30 H         143.8742  139.6181  166.4235 H       1  UNL1        0.1537
     31 C         143.5025  141.4113  165.2650 C.ar    1  UNL1        0.0667
     32 C         143.8115  142.7725  165.8143 C.ar    1  UNL1        0.0159
     33 C         144.1317  143.9027  164.8815 C.ar    1  UNL1        0.0014
     34 C         144.1428  143.6717  163.3994 C.ar    1  UNL1        0.0014
     35 C         143.8337  142.3106  162.8501 C.ar    1  UNL1        0.0196
     36 C         143.5136  141.1803  163.7830 C.ar    1  UNL1        0.1189
     37 S         143.2045  139.8192  163.2338 S.O2    1  UNL1        0.0082
     38 O         144.5153  139.3106  163.7564 O.2     1  UNL1       -0.1686
     39 O         141.8937  140.3277  162.7111 O.2     1  UNL1       -0.1686
     40 C         142.8954  138.4580  162.6845 C.3     1  UNL1        0.1340
     41 C         141.8036  137.6320  163.2976 C.3     1  UNL1        0.0257
     42 C         143.6782  137.9227  161.5224 C.3     1  UNL1        0.0257
     43 O         137.7173  142.7091  164.4457 O.3     1  UNL1       -0.4779
     44 C         138.8054  143.6500  164.8708 C.3     1  UNL1        0.1662
     45 C         140.2396  143.3160  164.5854 C.3     1  UNL1        0.0472
     46 C         138.4593  144.9249  165.5814 C.3     1  UNL1        0.0472
@<TRIPOS>BOND
     1     1     2    1
     2     2     3   ar
     3     3     4   ar
     4     4    20    1
     5    20    22    1
     6    22    23   ar
     7    23    24   ar
     8    24    25   ar
     9    25    26    1
    10    25    27   ar
    11    27    29    1
    12    29    31    1
    13    31    32   ar
    14    32    33   ar
    15    33    34   ar
    16    34    35   ar
    17    35    36   ar
    18    36    37    1
    19    37    38    2
    20    37    39    2
    21    37    40    1
    22    40    41    1
    23    40    42    1
    24    27    28   ar
    25     4     5   ar
    26     5    43    1
    27    43    44    1
    28    44    45    1
    29    44    46    1
    30     5     6   ar
    31     6     7   ar
    32     7     8    1
    33     8     9    1
    34     9    10    1
    35    10    11    1
    36    11    12   am
    37    12    13    2
    38    12    16    1
    39    16    17    1
    40    17    18    1
    41    17    19    1
    42    11    14    1
    43    14    15    1
    44     7     2   ar
    45    15     8    1
    46    28    22   ar
    47    36    31   ar
    48    20    21    1
    49    29    30    1
@<TRIPOS>MOLECULE
*****
 46 49 0 0 0
SMALL
GASTEIGER

@<TRIPOS>ATOM
      1 C         141.1249  137.2818  164.4421 C.3     1  UNL1        0.0307
      2 C         140.2927  138.0361  163.4479 C.ar    1  UNL1       -0.0244
      3 C         140.3870  137.7067  161.9875 C.ar    1  UNL1        0.0132
      4 C         139.5548  138.4610  160.9933 C.ar    1  UNL1        0.0846
      5 C         138.6283  139.5446  161.4594 C.ar    1  UNL1        0.1513
      6 C         138.5340  139.8740  162.9197 C.ar    1  UNL1        0.0336
      7 C         139.3662  139.1197  163.9139 C.ar    1  UNL1       -0.0232
      8 C         139.2718  139.4491  165.3743 C.3     1  UNL1        0.0255
      9 C         140.1457  140.5185  165.9599 C.3     1  UNL1        0.0259
     10 C         140.0514  140.8479  167.4202 C.3     1  UNL1        0.0938
     11 N         139.0832  140.1080  168.2950 N.am    1  UNL1       -0.2784
     12 C         138.9889  140.4374  169.7553 C.2     1  UNL1        0.2420
     13 O         138.0207  139.6975  170.6300 O.2     1  UNL1       -0.2734
     14 C         138.2093  139.0387  167.7094 C.3     1  UNL1        0.0938
     15 C         138.3036  138.7093  166.2490 C.3     1  UNL1        0.0259
     16 C         139.8627  141.5067  170.3409 C.3     1  UNL1        0.1587
     17 N         141.3404  141.2822  170.4670 N.3     1  UNL1       -0.2626
     18 C         142.2687  142.4533  170.5965 C.3     1  UNL1        0.0900
     19 C         141.8900  139.8864  170.4635 C.3     1  UNL1        0.0900
     20 N         139.6491  138.1316  159.5329 N.pl3   1  UNL1       -0.2801
     21 H         138.9554  137.5775  159.1074 H       1  UNL1        0.1552
     22 C         140.8005  138.6464  158.7208 C.ar    1  UNL1        0.2220
     23 N         141.1467  137.9961  157.4142 N.ar    1  UNL1       -0.2110
     24 C         142.2980  138.5109  156.6021 C.ar    1  UNL1        0.1160
     25 C         143.1031  139.6759  157.0967 C.ar    1  UNL1        0.1085
     26 CL        144.2544  140.1907  156.2846 Cl      1  UNL1       -0.0777
     27 C         142.7569  140.3261  158.4033 C.ar    1  UNL1        0.1472
     28 N         141.6055  139.8113  159.2154 N.ar    1  UNL1       -0.1976
     29 N         143.5620  141.4912  158.8979 N.pl3   1  UNL1       -0.2961
     30 H         144.5326  141.5227  158.7365 H       1  UNL1        0.1537
     31 C         142.8881  142.6081  159.6384 C.ar    1  UNL1        0.0667
     32 C         142.1931  143.6993  158.8792 C.ar    1  UNL1        0.0159
     33 C         141.5193  144.8162  159.6197 C.ar    1  UNL1        0.0014
     34 C         141.5404  144.8420  161.1194 C.ar    1  UNL1        0.0014
     35 C         142.2354  143.7508  161.8785 C.ar    1  UNL1        0.0196
     36 C         142.9093  142.6339  161.1380 C.ar    1  UNL1        0.1189
     37 S         143.6043  141.5427  161.8971 S.O2    1  UNL1        0.0082
     38 O         142.2774  141.0248  162.3674 O.2     1  UNL1       -0.1686
     39 O         144.9311  142.0606  161.4268 O.2     1  UNL1       -0.1686
     40 C         144.2993  140.4515  162.6562 C.3     1  UNL1        0.1340
     41 C         145.3077  140.7970  163.7116 C.3     1  UNL1        0.0257
     42 C         143.9859  139.0148  162.3600 C.3     1  UNL1        0.0257
     43 O         137.7961  140.2989  160.4651 O.3     1  UNL1       -0.4779
     44 C         138.3226  141.5621  159.8512 C.3     1  UNL1        0.1662
     45 C         138.6045  142.7552  160.7155 C.3     1  UNL1        0.0472
     46 C         138.5673  141.6323  158.3729 C.3     1  UNL1        0.0472
@<TRIPOS>BOND
     1     1     2    1
     2     2     3   ar
     3     3     4   ar
     4     4    20    1
     5    20    22    1
     6    22    23   ar
     7    23    24   ar
     8    24    25   ar
     9    25    26    1
    10    25    27   ar
    11    27    29    1
    12    29    31    1
    13    31    32   ar
    14    32    33   ar
    15    33    34   ar
    16    34    35   ar
    17    35    36   ar
    18    36    37    1
    19    37    38    2
    20    37    39    2
    21    37    40    1
    22    40    41    1
    23    40    42    1
    24    27    28   ar
    25     4     5   ar
    26     5    43    1
    27    43    44    1
    28    44    45    1
    29    44    46    1
    30     5     6   ar
    31     6     7   ar
    32     7     8    1
    33     8     9    1
    34     9    10    1
    35    10    11    1
    36    11    12   am
    37    12    13    2
    38    12    16    1
    39    16    17    1
    40    17    18    1
    41    17    19    1
    42    11    14    1
    43    14    15    1
    44     7     2   ar
    45    15     8    1
    46    28    22   ar
    47    36    31   ar
    48    20    21    1
    49    29    30    1
@<TRIPOS>MOLECULE
*****
 46 49 0 0 0
SMALL
GASTEIGER

@<TRIPOS>ATOM
      1 C         145.2803  139.8939  164.3749 C.3     1  UNL1        0.0307
      2 C         144.0776  139.2686  163.7326 C.ar    1  UNL1       -0.0244
      3 C         144.1649  138.7409  162.3313 C.ar    1  UNL1        0.0132
      4 C         142.9622  138.1155  161.6890 C.ar    1  UNL1        0.0846
      5 C         141.6722  138.0179  162.4482 C.ar    1  UNL1        0.1513
      6 C         141.5849  138.5456  163.8495 C.ar    1  UNL1        0.0336
      7 C         142.7876  139.1709  164.4918 C.ar    1  UNL1       -0.0232
      8 C         142.7002  139.6987  165.8932 C.3     1  UNL1        0.0255
      9 C         142.3801  141.1446  166.1315 C.3     1  UNL1        0.0259
     10 C         142.2927  141.6723  167.5329 C.3     1  UNL1        0.0938
     11 N         142.5255  140.7541  168.6960 N.am    1  UNL1       -0.2784
     12 C         142.4382  141.2819  170.0973 C.2     1  UNL1        0.2420
     13 O         142.6710  140.3637  171.2604 O.2     1  UNL1       -0.2734
     14 C         142.8457  139.3082  168.4577 C.3     1  UNL1        0.0938
     15 C         142.9330  138.7805  167.0562 C.3     1  UNL1        0.0259
     16 C         142.1180  142.7278  170.3356 C.3     1  UNL1        0.1587
     17 N         140.6908  143.1892  170.3392 N.3     1  UNL1       -0.2626
     18 C         140.3753  144.6521  170.2372 C.3     1  UNL1        0.0900
     19 C         139.5790  142.1878  170.4446 C.3     1  UNL1        0.0900
     20 N         143.0495  137.5878  160.2876 N.pl3   1  UNL1       -0.2801
     21 H         143.2047  136.6282  160.1317 H       1  UNL1        0.1552
     22 C         142.9005  138.5222  159.1237 C.ar    1  UNL1        0.2220
     23 N         143.2817  138.0700  157.7452 N.ar    1  UNL1       -0.2110
     24 C         143.1327  139.0044  156.5813 C.ar    1  UNL1        0.1160
     25 C         142.6023  140.3910  156.7959 C.ar    1  UNL1        0.1085
     26 CL        142.4533  141.3255  155.6320 Cl      1  UNL1       -0.0777
     27 C         142.2211  140.8432  158.1744 C.ar    1  UNL1        0.1472
     28 N         142.3702  139.9088  159.3383 N.ar    1  UNL1       -0.1976
     29 N         141.6908  142.2299  158.3890 N.pl3   1  UNL1       -0.2961
     30 H         142.0666  142.9848  157.8808 H       1  UNL1        0.1537
     31 C         140.5880  142.4664  159.3778 C.ar    1  UNL1        0.0667
     32 C         139.1577  142.2847  158.9638 C.ar    1  UNL1        0.0159
     33 C         138.0549  142.5212  159.9526 C.ar    1  UNL1        0.0014
     34 C         138.3823  142.9395  161.3555 C.ar    1  UNL1        0.0014
     35 C         139.8125  143.1212  161.7694 C.ar    1  UNL1        0.0196
     36 C         140.9154  142.8847  160.7805 C.ar    1  UNL1        0.1189
     37 S         142.3456  143.0664  161.1945 S.O2    1  UNL1        0.0082
     38 O         142.2506  141.8445  162.0594 O.2     1  UNL1       -0.1686
     39 O         142.4407  144.2883  160.3296 O.2     1  UNL1       -0.1686
     40 C         143.7759  143.2482  161.6085 C.3     1  UNL1        0.1340
     41 C         144.1256  144.2314  162.6860 C.3     1  UNL1        0.0257
     42 C         144.8563  142.4468  160.9449 C.3     1  UNL1        0.0257
     43 O         140.4695  137.3926  161.8059 O.3     1  UNL1       -0.4779
     44 C         139.3223  138.2526  161.3651 C.3     1  UNL1        0.1662
     45 C         139.1976  138.6567  159.9260 C.3     1  UNL1        0.0472
     46 C         138.2998  138.7086  162.3635 C.3     1  UNL1        0.0472
@<TRIPOS>BOND
     1     1     2    1
     2     2     3   ar
     3     3     4   ar
     4     4    20    1
     5    20    22    1
     6    22    23   ar
     7    23    24   ar
     8    24    25   ar
     9    25    26    1
    10    25    27   ar
    11    27    29    1
    12    29    31    1
    13    31    32   ar
    14    32    33   ar
    15    33    34   ar
    16    34    35   ar
    17    35    36   ar
    18    36    37    1
    19    37    38    2
    20    37    39    2
    21    37    40    1
    22    40    41    1
    23    40    42    1
    24    27    28   ar
    25     4     5   ar
    26     5    43    1
    27    43    44    1
    28    44    45    1
    29    44    46    1
    30     5     6   ar
    31     6     7   ar
    32     7     8    1
    33     8     9    1
    34     9    10    1
    35    10    11    1
    36    11    12   am
    37    12    13    2
    38    12    16    1
    39    16    17    1
    40    17    18    1
    41    17    19    1
    42    11    14    1
    43    14    15    1
    44     7     2   ar
    45    15     8    1
    46    28    22   ar
    47    36    31   ar
    48    20    21    1
    49    29    30    1
@<TRIPOS>MOLECULE
*****
 46 49 0 0 0
SMALL
GASTEIGER

@<TRIPOS>ATOM
      1 C         143.3035  140.7217  157.8145 C.3     1  UNL1        0.0307
      2 C         141.9769  140.8589  158.5011 C.ar    1  UNL1       -0.0244
      3 C         141.6419  142.1206  159.2400 C.ar    1  UNL1        0.0132
      4 C         140.3154  142.2578  159.9266 C.ar    1  UNL1        0.0846
      5 C         139.3239  141.1335  159.8744 C.ar    1  UNL1        0.1513
      6 C         139.6590  139.8718  159.1356 C.ar    1  UNL1        0.0336
      7 C         140.9855  139.7346  158.4489 C.ar    1  UNL1       -0.0232
      8 C         141.3205  138.4728  157.7101 C.3     1  UNL1        0.0255
      9 C         142.6138  137.7641  157.9842 C.3     1  UNL1        0.0259
     10 C         142.9489  136.5024  157.2454 C.3     1  UNL1        0.0938
     11 N         141.9906  135.9494  156.2324 N.am    1  UNL1       -0.2784
     12 C         142.3257  134.6878  155.4936 C.2     1  UNL1        0.2420
     13 O         141.3675  134.1349  154.4806 O.2     1  UNL1       -0.2734
     14 C         140.6974  136.6582  155.9582 C.3     1  UNL1        0.0938
     15 C         140.3623  137.9199  156.6971 C.3     1  UNL1        0.0259
     16 C         143.6190  133.9790  155.7677 C.3     1  UNL1        0.1587
     17 N         143.6725  132.8864  156.7940 N.3     1  UNL1       -0.2626
     18 C         142.7501  131.7086  156.6844 C.3     1  UNL1        0.0900
     19 C         144.6485  132.9715  157.9299 C.3     1  UNL1        0.0900
     20 N         139.9803  143.5196  160.6655 N.pl3   1  UNL1       -0.2801
     21 H         139.7654  144.3403  160.1660 H       1  UNL1        0.1552
     22 C         139.9728  143.5308  162.1654 C.ar    1  UNL1        0.2220
     23 N         139.4112  144.7097  162.9038 N.ar    1  UNL1       -0.2110
     24 C         139.4037  144.7209  164.4037 C.ar    1  UNL1        0.1160
     25 C         139.9577  143.5533  165.1653 C.ar    1  UNL1        0.1085
     26 CL        139.9501  143.5646  166.6653 Cl      1  UNL1       -0.0777
     27 C         140.5192  142.3746  164.4270 C.ar    1  UNL1        0.1472
     28 N         140.5267  142.3633  162.9270 N.ar    1  UNL1       -0.1976
     29 N         141.0732  141.2070  165.1885 N.pl3   1  UNL1       -0.2961
     30 H         141.9528  141.2768  165.6252 H       1  UNL1        0.1537
     31 C         140.2870  139.9332  165.2848 C.ar    1  UNL1        0.0667
     32 C         139.0114  139.8969  166.0732 C.ar    1  UNL1        0.0159
     33 C         138.2253  138.6231  166.1694 C.ar    1  UNL1        0.0014
     34 C         138.7147  137.3855  165.4772 C.ar    1  UNL1        0.0014
     35 C         139.9903  137.4218  164.6889 C.ar    1  UNL1        0.0196
     36 C         140.7764  138.6958  164.5927 C.ar    1  UNL1        0.1189
     37 S         142.0520  138.7321  163.8043 S.O2    1  UNL1        0.0082
     38 O         142.8223  138.3485  165.0329 O.2     1  UNL1       -0.1686
     39 O         141.2818  139.1157  162.5757 O.2     1  UNL1       -0.1686
     40 C         143.3276  138.7684  163.0159 C.3     1  UNL1        0.1340
     41 C         144.5296  139.4774  163.5663 C.3     1  UNL1        0.0257
     42 C         143.4014  138.0959  161.6772 C.3     1  UNL1        0.0257
     43 O         137.9974  141.2708  160.5611 O.3     1  UNL1       -0.4779
     44 C         137.7218  140.5039  161.8204 C.3     1  UNL1        0.1662
     45 C         137.3090  141.2307  163.0660 C.3     1  UNL1        0.0472
     46 C         137.8591  139.0102  161.8343 C.3     1  UNL1        0.0472
@<TRIPOS>BOND
     1     1     2    1
     2     2     3   ar
     3     3     4   ar
     4     4    20    1
     5    20    22    1
     6    22    23   ar
     7    23    24   ar
     8    24    25   ar
     9    25    26    1
    10    25    27   ar
    11    27    29    1
    12    29    31    1
    13    31    32   ar
    14    32    33   ar
    15    33    34   ar
    16    34    35   ar
    17    35    36   ar
    18    36    37    1
    19    37    38    2
    20    37    39    2
    21    37    40    1
    22    40    41    1
    23    40    42    1
    24    27    28   ar
    25     4     5   ar
    26     5    43    1
    27    43    44    1
    28    44    45    1
    29    44    46    1
    30     5     6   ar
    31     6     7   ar
    32     7     8    1
    33     8     9    1
    34     9    10    1
    35    10    11    1
    36    11    12   am
    37    12    13    2
    38    12    16    1
    39    16    17    1
    40    17    18    1
    41    17    19    1
    42    11    14    1
    43    14    15    1
    44     7     2   ar
    45    15     8    1
    46    28    22   ar
    47    36    31   ar
    48    20    21    1
    49    29    30    1
@<TRIPOS>MOLECULE
*****
 46 49 0 0 0
SMALL
GASTEIGER

@<TRIPOS>ATOM
      1 C         137.8955  141.7388  164.0215 C.3     1  UNL1        0.0307
      2 C         138.7205  140.6906  163.3355 C.ar    1  UNL1       -0.0244
      3 C         138.7579  140.6272  161.8373 C.ar    1  UNL1        0.0132
      4 C         139.5829  139.5789  161.1514 C.ar    1  UNL1        0.0846
      5 C         140.3705  138.5941  161.9636 C.ar    1  UNL1        0.1513
      6 C         140.3331  138.6575  163.4618 C.ar    1  UNL1        0.0336
      7 C         139.5081  139.7057  164.1477 C.ar    1  UNL1       -0.0232
      8 C         139.4707  139.7691  165.6460 C.3     1  UNL1        0.0255
      9 C         140.6285  140.3517  166.4011 C.3     1  UNL1        0.0259
     10 C         140.5912  140.4151  167.8992 C.3     1  UNL1        0.0938
     11 N         139.3961  139.8959  168.6424 N.am    1  UNL1       -0.2784
     12 C         139.3587  139.9593  170.1405 C.2     1  UNL1        0.2420
     13 O         138.1637  139.4401  170.8836 O.2     1  UNL1       -0.2734
     14 C         138.2383  139.3133  167.8873 C.3     1  UNL1        0.0938
     15 C         138.2757  139.2499  166.3890 C.3     1  UNL1        0.0259
     16 C         140.5165  140.5419  170.8956 C.3     1  UNL1        0.1587
     17 N         140.8349  142.0023  170.7704 N.3     1  UNL1       -0.2626
     18 C         142.2636  142.4579  170.7328 C.3     1  UNL1        0.0900
     19 C         139.7247  143.0073  170.6828 C.3     1  UNL1        0.0900
     20 N         139.6203  139.5155  159.6531 N.pl3   1  UNL1       -0.2801
     21 H         139.0952  138.8329  159.1761 H       1  UNL1        0.1552
     22 C         140.4576  140.4922  158.8818 C.ar    1  UNL1        0.2220
     23 N         140.7090  140.2735  157.4192 N.ar    1  UNL1       -0.2110
     24 C         141.5463  141.2502  156.6479 C.ar    1  UNL1        0.1160
     25 C         142.1323  142.4456  157.3392 C.ar    1  UNL1        0.1085
     26 CL        142.9697  143.4223  156.5679 Cl      1  UNL1       -0.0777
     27 C         141.8809  142.6642  158.8017 C.ar    1  UNL1        0.1472
     28 N         141.0436  141.6875  159.5730 N.ar    1  UNL1       -0.1976
     29 N         142.4669  143.8596  159.4930 N.pl3   1  UNL1       -0.2961
     30 H         143.3509  144.1994  159.2241 H       1  UNL1        0.1537
     31 C         141.7061  144.5371  160.5939 C.ar    1  UNL1        0.0667
     32 C         140.5809  145.4721  160.2627 C.ar    1  UNL1        0.0159
     33 C         139.8200  146.1496  161.3636 C.ar    1  UNL1        0.0014
     34 C         140.1843  145.8921  162.7957 C.ar    1  UNL1        0.0014
     35 C         141.3095  144.9571  163.1269 C.ar    1  UNL1        0.0196
     36 C         142.0704  144.2796  162.0260 C.ar    1  UNL1        0.1189
     37 S         143.1956  143.3446  162.3572 S.O2    1  UNL1        0.0082
     38 O         142.2045  142.2638  162.6730 O.2     1  UNL1       -0.1686
     39 O         144.1866  144.4253  162.0413 O.2     1  UNL1       -0.1686
     40 C         144.3208  142.4096  162.6883 C.3     1  UNL1        0.1340
     41 C         144.8237  141.4455  161.6550 C.3     1  UNL1        0.0257
     42 C         144.9431  142.4386  164.0528 C.3     1  UNL1        0.0257
     43 O         141.1955  137.5458  161.2776 O.3     1  UNL1       -0.4779
     44 C         142.6022  137.8541  160.8583 C.3     1  UNL1        0.1662
     45 C         143.6723  138.0304  161.8946 C.3     1  UNL1        0.0472
     46 C         142.9390  137.9863  159.4025 C.3     1  UNL1        0.0472
@<TRIPOS>BOND
     1     1     2    1
     2     2     3   ar
     3     3     4   ar
     4     4    20    1
     5    20    22    1
     6    22    23   ar
     7    23    24   ar
     8    24    25   ar
     9    25    26    1
    10    25    27   ar
    11    27    29    1
    12    29    31    1
    13    31    32   ar
    14    32    33   ar
    15    33    34   ar
    16    34    35   ar
    17    35    36   ar
    18    36    37    1
    19    37    38    2
    20    37    39    2
    21    37    40    1
    22    40    41    1
    23    40    42    1
    24    27    28   ar
    25     4     5   ar
    26     5    43    1
    27    43    44    1
    28    44    45    1
    29    44    46    1
    30     5     6   ar
    31     6     7   ar
    32     7     8    1
    33     8     9    1
    34     9    10    1
    35    10    11    1
    36    11    12   am
    37    12    13    2
    38    12    16    1
    39    16    17    1
    40    17    18    1
    41    17    19    1
    42    11    14    1
    43    14    15    1
    44     7     2   ar
    45    15     8    1
    46    28    22   ar
    47    36    31   ar
    48    20    21    1
    49    29    30    1
