@<TRIPOS>MOLECULE
*****
 31 34 0 0 0
SMALL
GASTEIGER

@<TRIPOS>ATOM
      1 C         141.4903  140.7927  166.4281 C.2     1  UNL1        0.0020
      2 C         142.1519  141.4932  167.5777 C.2     1  UNL1        0.0130
      3 C         141.5585  141.4036  168.9524 C.3     1  UNL1        0.1542
      4 C         142.8135  142.1936  168.7273 C.3     1  UNL1        0.0614
      5 C         143.4751  142.8940  169.8770 C.3     1  UNL1        0.0725
      6 N         142.8817  142.8044  171.2517 N.3     1  UNL1       -0.2972
      7 C         141.6267  142.0143  171.4768 C.3     1  UNL1        0.0725
      8 C         140.9651  141.3139  170.3271 C.3     1  UNL1        0.0614
      9 O         140.3034  140.6135  169.1775 O.3     1  UNL1       -0.4784
     10 C         139.6419  139.9130  168.0279 C.ar    1  UNL1        0.1416
     11 C         138.3868  139.1229  168.2529 C.ar    1  UNL1        0.0735
     12 C         137.7252  138.4225  167.1033 C.ar    1  UNL1        0.1367
     13 O         136.4702  137.6325  167.3284 O.3     1  UNL1       -0.5054
     14 C         138.3186  138.5122  165.7286 C.ar    1  UNL1        0.0368
     15 C         139.5736  139.3022  165.5035 C.ar    1  UNL1        0.0061
     16 C         140.2353  140.0027  166.6532 C.ar    1  UNL1        0.0340
     17 H         142.6859  143.7597  171.5507 H       1  UNL1        0.1233
     18 H         136.0995  137.5765  168.1871 H       1  UNL1        0.2922
     19 C         143.2705  141.0617  162.3039 C.ar    1  UNL1        0.0536
     20 C         142.0815  141.9023  162.6638 C.ar    1  UNL1        0.0045
     21 C         141.4881  141.8126  164.0386 C.ar    1  UNL1        0.0001
     22 C         142.0837  140.8824  165.0534 C.ar    1  UNL1       -0.0001
     23 C         143.2728  140.0417  164.6935 C.ar    1  UNL1        0.0001
     24 C         143.8662  140.1314  163.3188 C.ar    1  UNL1        0.0045
     25 N         143.4718  140.1571  159.8768 N.am    1  UNL1       -0.2761
     26 C         143.8639  141.1513  160.9292 C.2     1  UNL1        0.2490
     27 O         144.8495  142.2353  160.6070 O.2     1  UNL1       -0.2699
     28 C         143.3174  139.6943  157.3249 C.3     1  UNL1        0.0233
     29 C         144.0652  140.2467  158.5021 C.3     1  UNL1        0.0938
     30 C         142.4862  139.0732  160.1990 C.3     1  UNL1        0.0938
     31 C         142.9722  137.7015  160.5629 C.3     1  UNL1        0.0233
@<TRIPOS>BOND
     1    28    29    1
     2    29    25    1
     3    25    30    1
     4    30    31    1
     5    25    26   am
     6    26    27    2
     7    26    19    1
     8    19    20   ar
     9    20    21   ar
    10    21    22   ar
    11    22     1    1
    12     1     2    2
    13     2     3    1
    14     3     4    1
    15     4     5    1
    16     5     6    1
    17     6     7    1
    18     7     8    1
    19     3     9    1
    20     9    10    1
    21    10    11   ar
    22    11    12   ar
    23    12    13    1
    24    12    14   ar
    25    14    15   ar
    26    15    16   ar
    27    22    23   ar
    28    23    24   ar
    29    24    19   ar
    30    16     1    1
    31     8     3    1
    32    16    10   ar
    33     6    17    1
    34    13    18    1
@<TRIPOS>MOLECULE
*****
 31 34 0 0 0
SMALL
GASTEIGER

@<TRIPOS>ATOM
      1 C         141.0939  141.3975  166.6905 C.2     1  UNL1        0.0020
      2 C         141.7257  141.9498  167.9340 C.2     1  UNL1        0.0130
      3 C         141.2110  141.5402  169.2821 C.3     1  UNL1        0.1542
      4 C         142.3574  142.5019  169.1774 C.3     1  UNL1        0.0614
      5 C         142.9890  143.0541  170.4207 C.3     1  UNL1        0.0725
      6 N         142.4744  142.6446  171.7689 N.3     1  UNL1       -0.2972
      7 C         141.3280  141.6829  171.8736 C.3     1  UNL1        0.0725
      8 C         140.6964  141.1307  170.6302 C.3     1  UNL1        0.0614
      9 O         140.0646  140.5785  169.3868 O.3     1  UNL1       -0.4784
     10 C         139.4329  140.0263  168.1434 C.ar    1  UNL1        0.1416
     11 C         138.2865  139.0646  168.2481 C.ar    1  UNL1        0.0735
     12 C         137.6548  138.5124  167.0047 C.ar    1  UNL1        0.1367
     13 O         136.5085  137.5508  167.1094 O.3     1  UNL1       -0.5054
     14 C         138.1695  138.9220  165.6566 C.ar    1  UNL1        0.0368
     15 C         139.3158  139.8836  165.5519 C.ar    1  UNL1        0.0061
     16 C         139.9476  140.4359  166.7953 C.ar    1  UNL1        0.0340
     17 H         142.1866  143.4988  172.2461 H       1  UNL1        0.1233
     18 H         136.1870  137.2950  167.9516 H       1  UNL1        0.2922
     19 C         142.6379  142.6261  162.6462 C.ar    1  UNL1        0.0536
     20 C         142.9359  141.2557  163.1781 C.ar    1  UNL1        0.0045
     21 C         142.4212  140.8461  164.5263 C.ar    1  UNL1        0.0001
     22 C         141.6086  141.8071  165.3424 C.ar    1  UNL1       -0.0001
     23 C         141.3106  143.1776  164.8105 C.ar    1  UNL1        0.0001
     24 C         141.8252  143.5871  163.4624 C.ar    1  UNL1        0.0045
     25 N         142.2746  142.9056  160.0889 N.am    1  UNL1       -0.2761
     26 C         143.1526  143.0356  161.2981 C.2     1  UNL1        0.2490
     27 O         144.5453  143.5753  161.1592 O.2     1  UNL1       -0.2699
     28 C         142.2276  144.5282  158.0604 C.3     1  UNL1        0.0233
     29 C         142.7893  143.3151  158.7408 C.3     1  UNL1        0.0938
     30 C         140.8819  142.3659  160.2278 C.3     1  UNL1        0.0938
     31 C         139.7275  143.3067  160.4074 C.3     1  UNL1        0.0233
@<TRIPOS>BOND
     1    28    29    1
     2    29    25    1
     3    25    30    1
     4    30    31    1
     5    25    26   am
     6    26    27    2
     7    26    19    1
     8    19    20   ar
     9    20    21   ar
    10    21    22   ar
    11    22     1    1
    12     1     2    2
    13     2     3    1
    14     3     4    1
    15     4     5    1
    16     5     6    1
    17     6     7    1
    18     7     8    1
    19     3     9    1
    20     9    10    1
    21    10    11   ar
    22    11    12   ar
    23    12    13    1
    24    12    14   ar
    25    14    15   ar
    26    15    16   ar
    27    22    23   ar
    28    23    24   ar
    29    24    19   ar
    30    16     1    1
    31     8     3    1
    32    16    10   ar
    33     6    17    1
    34    13    18    1
@<TRIPOS>MOLECULE
*****
 31 34 0 0 0
SMALL
GASTEIGER

@<TRIPOS>ATOM
      1 C         140.1247  142.1474  166.6576 C.2     1  UNL1        0.0020
      2 C         140.8900  142.5910  167.8691 C.2     1  UNL1        0.0130
      3 C         140.8834  141.7488  169.1103 C.3     1  UNL1        0.1542
      4 C         141.6552  143.0346  169.0805 C.3     1  UNL1        0.0614
      5 C         142.4205  143.4782  170.2919 C.3     1  UNL1        0.0725
      6 N         142.4139  142.6360  171.5331 N.3     1  UNL1       -0.2972
      7 C         141.6420  141.3502  171.5629 C.3     1  UNL1        0.0725
      8 C         140.8767  140.9066  170.3515 C.3     1  UNL1        0.0614
      9 O         140.1114  140.4630  169.1401 O.3     1  UNL1       -0.4784
     10 C         139.3462  140.0194  167.9286 C.ar    1  UNL1        0.1416
     11 C         138.5742  138.7336  167.9584 C.ar    1  UNL1        0.0735
     12 C         137.8090  138.2900  166.7470 C.ar    1  UNL1        0.1367
     13 O         137.0371  137.0042  166.7768 O.3     1  UNL1       -0.5054
     14 C         137.8156  139.1322  165.5058 C.ar    1  UNL1        0.0368
     15 C         138.5875  140.4180  165.4759 C.ar    1  UNL1        0.0061
     16 C         139.3528  140.8616  166.6874 C.ar    1  UNL1        0.0340
     17 H         142.0429  143.2196  172.2829 H       1  UNL1        0.1233
     18 H         137.0330  136.4781  167.5522 H       1  UNL1        0.2922
     19 C         140.1446  144.6740  162.9339 C.ar    1  UNL1        0.0536
     20 C         141.4308  144.1200  163.4712 C.ar    1  UNL1        0.0045
     21 C         141.4241  143.2778  164.7125 C.ar    1  UNL1        0.0001
     22 C         140.1313  142.9896  165.4164 C.ar    1  UNL1       -0.0001
     23 C         138.8450  143.5436  164.8790 C.ar    1  UNL1        0.0001
     24 C         138.8517  144.3858  163.6378 C.ar    1  UNL1        0.0045
     25 N         140.3448  144.8735  160.3512 N.am    1  UNL1       -0.2761
     26 C         140.1512  145.5162  161.6927 C.2     1  UNL1        0.2490
     27 O         139.9642  147.0011  161.7929 O.2     1  UNL1       -0.2699
     28 C         141.5281  145.6725  158.1807 C.3     1  UNL1        0.0233
     29 C         140.3514  145.7157  159.1100 C.3     1  UNL1        0.0938
     30 C         140.5318  143.3885  160.2510 C.3     1  UNL1        0.0938
     31 C         139.3377  142.4886  160.1314 C.3     1  UNL1        0.0233
@<TRIPOS>BOND
     1    28    29    1
     2    29    25    1
     3    25    30    1
     4    30    31    1
     5    25    26   am
     6    26    27    2
     7    26    19    1
     8    19    20   ar
     9    20    21   ar
    10    21    22   ar
    11    22     1    1
    12     1     2    2
    13     2     3    1
    14     3     4    1
    15     4     5    1
    16     5     6    1
    17     6     7    1
    18     7     8    1
    19     3     9    1
    20     9    10    1
    21    10    11   ar
    22    11    12   ar
    23    12    13    1
    24    12    14   ar
    25    14    15   ar
    26    15    16   ar
    27    22    23   ar
    28    23    24   ar
    29    24    19   ar
    30    16     1    1
    31     8     3    1
    32    16    10   ar
    33     6    17    1
    34    13    18    1
@<TRIPOS>MOLECULE
*****
 31 34 0 0 0
SMALL
GASTEIGER

@<TRIPOS>ATOM
      1 C         141.9386  142.1421  162.6821 C.2     1  UNL1        0.0020
      2 C         142.5907  141.2533  161.6647 C.2     1  UNL1        0.0130
      3 C         142.5356  141.6129  160.2095 C.3     1  UNL1        0.1542
      4 C         143.2428  140.3647  160.6474 C.3     1  UNL1        0.0614
      5 C         143.8948  139.4760  159.6300 C.3     1  UNL1        0.0725
      6 N         143.8397  139.8356  158.1748 N.3     1  UNL1       -0.2972
      7 C         143.1326  141.0839  157.7369 C.3     1  UNL1        0.0725
      8 C         142.4806  141.9726  158.7543 C.3     1  UNL1        0.0614
      9 O         141.8285  142.8613  159.7717 O.3     1  UNL1       -0.4784
     10 C         141.1764  143.7499  160.7891 C.ar    1  UNL1        0.1416
     11 C         140.4692  144.9983  160.3513 C.ar    1  UNL1        0.0735
     12 C         139.8172  145.8869  161.3686 C.ar    1  UNL1        0.1367
     13 O         139.1101  147.1352  160.9308 O.3     1  UNL1       -0.5054
     14 C         139.8723  145.5273  162.8238 C.ar    1  UNL1        0.0368
     15 C         140.5794  144.2791  163.2617 C.ar    1  UNL1        0.0061
     16 C         141.2315  143.3903  162.2443 C.ar    1  UNL1        0.0340
     17 H         143.3866  139.0572  157.6961 H       1  UNL1        0.1233
     18 H         139.0757  147.3598  160.0218 H       1  UNL1        0.2922
     19 C         142.1039  141.0632  167.0478 C.ar    1  UNL1        0.0536
     20 C         141.0633  140.4456  166.1615 C.ar    1  UNL1        0.0045
     21 C         141.0082  140.8053  164.7062 C.ar    1  UNL1        0.0001
     22 C         141.9937  141.7825  164.1373 C.ar    1  UNL1       -0.0001
     23 C         143.0345  142.4001  165.0237 C.ar    1  UNL1        0.0001
     24 C         143.0896  142.0405  166.4789 C.ar    1  UNL1        0.0045
     25 N         141.3432  141.4751  169.4976 N.am    1  UNL1       -0.2761
     26 C         142.1590  140.7036  168.5030 C.2     1  UNL1        0.2490
     27 O         143.0300  139.5725  168.9636 O.2     1  UNL1       -0.2699
     28 C         140.4751  140.0685  171.5021 C.3     1  UNL1        0.0233
     29 C         141.3983  141.1155  170.9528 C.3     1  UNL1        0.0938
     30 C         140.4723  142.6062  169.0370 C.3     1  UNL1        0.0938
     31 C         140.4786  143.9086  169.7811 C.3     1  UNL1        0.0233
@<TRIPOS>BOND
     1    28    29    1
     2    29    25    1
     3    25    30    1
     4    30    31    1
     5    25    26   am
     6    26    27    2
     7    26    19    1
     8    19    20   ar
     9    20    21   ar
    10    21    22   ar
    11    22     1    1
    12     1     2    2
    13     2     3    1
    14     3     4    1
    15     4     5    1
    16     5     6    1
    17     6     7    1
    18     7     8    1
    19     3     9    1
    20     9    10    1
    21    10    11   ar
    22    11    12   ar
    23    12    13    1
    24    12    14   ar
    25    14    15   ar
    26    15    16   ar
    27    22    23   ar
    28    23    24   ar
    29    24    19   ar
    30    16     1    1
    31     8     3    1
    32    16    10   ar
    33     6    17    1
    34    13    18    1
@<TRIPOS>MOLECULE
*****
 31 34 0 0 0
SMALL
GASTEIGER

@<TRIPOS>ATOM
      1 C         141.4063  142.0439  166.5016 C.2     1  UNL1        0.0020
      2 C         140.8453  142.5666  167.7908 C.2     1  UNL1        0.0130
      3 C         141.0829  141.8196  169.0697 C.3     1  UNL1        0.1542
      4 C         140.2843  143.0892  169.0800 C.3     1  UNL1        0.0614
      5 C         139.7233  143.6119  170.3692 C.3     1  UNL1        0.0725
      6 N         139.9610  142.8649  171.6481 N.3     1  UNL1       -0.2972
      7 C         140.7596  141.5953  171.6378 C.3     1  UNL1        0.0725
      8 C         141.3206  141.0726  170.3486 C.3     1  UNL1        0.0614
      9 O         141.8816  140.5499  169.0593 O.3     1  UNL1       -0.4784
     10 C         142.4426  140.0273  167.7701 C.ar    1  UNL1        0.1416
     11 C         143.2413  138.7576  167.7597 C.ar    1  UNL1        0.0735
     12 C         143.8023  138.2349  166.4705 C.ar    1  UNL1        0.1367
     13 O         144.6009  136.9653  166.4602 O.3     1  UNL1       -0.5054
     14 C         143.5646  138.9819  165.1917 C.ar    1  UNL1        0.0368
     15 C         142.7660  140.2515  165.2020 C.ar    1  UNL1        0.0061
     16 C         142.2049  140.7742  166.4912 C.ar    1  UNL1        0.0340
     17 H         139.0434  142.6325  172.0282 H       1  UNL1        0.1233
     18 H         144.7494  136.4987  167.2591 H       1  UNL1        0.2922
     19 C         140.6933  144.2848  162.6649 C.ar    1  UNL1        0.0536
     20 C         141.9578  144.5084  163.4402 C.ar    1  UNL1        0.0045
     21 C         142.1954  143.7614  164.7191 C.ar    1  UNL1        0.0001
     22 C         141.1686  142.7909  165.2227 C.ar    1  UNL1       -0.0001
     23 C         139.9041  142.5672  164.4474 C.ar    1  UNL1        0.0001
     24 C         139.6664  143.3142  163.1685 C.ar    1  UNL1        0.0045
     25 N         140.9012  144.4437  160.0801 N.am    1  UNL1       -0.2761
     26 C         140.4557  145.0318  161.3860 C.2     1  UNL1        0.2490
     27 O         139.7724  146.3669  161.4132 O.2     1  UNL1       -0.2699
     28 C         141.8226  145.7645  158.0412 C.3     1  UNL1        0.0233
     29 C         140.6636  145.1907  158.8012 C.3     1  UNL1        0.0938
     30 C         141.5845  143.1086  160.0529 C.3     1  UNL1        0.0938
     31 C         143.0785  143.0284  160.1592 C.3     1  UNL1        0.0233
@<TRIPOS>BOND
     1    28    29    1
     2    29    25    1
     3    25    30    1
     4    30    31    1
     5    25    26   am
     6    26    27    2
     7    26    19    1
     8    19    20   ar
     9    20    21   ar
    10    21    22   ar
    11    22     1    1
    12     1     2    2
    13     2     3    1
    14     3     4    1
    15     4     5    1
    16     5     6    1
    17     6     7    1
    18     7     8    1
    19     3     9    1
    20     9    10    1
    21    10    11   ar
    22    11    12   ar
    23    12    13    1
    24    12    14   ar
    25    14    15   ar
    26    15    16   ar
    27    22    23   ar
    28    23    24   ar
    29    24    19   ar
    30    16     1    1
    31     8     3    1
    32    16    10   ar
    33     6    17    1
    34    13    18    1
@<TRIPOS>MOLECULE
*****
 31 34 0 0 0
SMALL
GASTEIGER

@<TRIPOS>ATOM
      1 C         141.5526  140.2156  163.7043 C.2     1  UNL1        0.0020
      2 C         140.4475  139.6240  164.5283 C.2     1  UNL1        0.0130
      3 C         140.2843  140.0269  165.9639 C.3     1  UNL1        0.1542
      4 C         139.3425  139.0325  165.3523 C.3     1  UNL1        0.0614
      5 C         138.2375  138.4410  166.1763 C.3     1  UNL1        0.0725
      6 N         138.0743  138.8439  167.6119 N.3     1  UNL1       -0.2972
      7 C         139.0160  139.8383  168.2235 C.3     1  UNL1        0.0725
      8 C         140.1210  140.4298  167.3995 C.3     1  UNL1        0.0614
      9 O         141.2261  141.0214  166.5755 O.3     1  UNL1       -0.4784
     10 C         142.3311  141.6129  165.7515 C.ar    1  UNL1        0.1416
     11 C         143.2730  142.6074  166.3632 C.ar    1  UNL1        0.0735
     12 C         144.3780  143.1989  165.5392 C.ar    1  UNL1        0.1367
     13 O         145.3197  144.1933  166.1508 O.3     1  UNL1       -0.5054
     14 C         144.5412  142.7960  164.1035 C.ar    1  UNL1        0.0368
     15 C         143.5994  141.8016  163.4919 C.ar    1  UNL1        0.0061
     16 C         142.4943  141.2100  164.3159 C.ar    1  UNL1        0.0340
     17 H         138.1453  137.9911  168.1670 H       1  UNL1        0.1233
     18 H         145.2178  144.4450  167.0476 H       1  UNL1        0.2922
     19 C         142.0422  139.0069  159.3974 C.ar    1  UNL1        0.0536
     20 C         141.1432  140.1524  159.7573 C.ar    1  UNL1        0.0045
     21 C         140.9800  140.5553  161.1930 C.ar    1  UNL1        0.0001
     22 C         141.7158  139.8127  162.2686 C.ar    1  UNL1       -0.0001
     23 C         142.6149  138.6672  161.9087 C.ar    1  UNL1        0.0001
     24 C         142.7781  138.2643  160.4731 C.ar    1  UNL1        0.0045
     25 N         143.2213  139.2936  157.1001 N.am    1  UNL1       -0.2761
     26 C         142.2055  138.6040  157.9618 C.2     1  UNL1        0.2490
     27 O         141.3527  137.5115  157.3878 O.2     1  UNL1       -0.2699
     28 C         144.5772  138.0844  155.2427 C.3     1  UNL1        0.0233
     29 C         143.3846  138.8907  155.6645 C.3     1  UNL1        0.0938
     30 C         144.0741  140.3861  157.6741 C.3     1  UNL1        0.0938
     31 C         143.7140  141.8224  157.4352 C.3     1  UNL1        0.0233
@<TRIPOS>BOND
     1    28    29    1
     2    29    25    1
     3    25    30    1
     4    30    31    1
     5    25    26   am
     6    26    27    2
     7    26    19    1
     8    19    20   ar
     9    20    21   ar
    10    21    22   ar
    11    22     1    1
    12     1     2    2
    13     2     3    1
    14     3     4    1
    15     4     5    1
    16     5     6    1
    17     6     7    1
    18     7     8    1
    19     3     9    1
    20     9    10    1
    21    10    11   ar
    22    11    12   ar
    23    12    13    1
    24    12    14   ar
    25    14    15   ar
    26    15    16   ar
    27    22    23   ar
    28    23    24   ar
    29    24    19   ar
    30    16     1    1
    31     8     3    1
    32    16    10   ar
    33     6    17    1
    34    13    18    1
@<TRIPOS>MOLECULE
*****
 31 34 0 0 0
SMALL
GASTEIGER

@<TRIPOS>ATOM
      1 C         140.2229  140.3445  162.5404 C.2     1  UNL1        0.0020
      2 C         140.2488  141.8434  162.5925 C.2     1  UNL1        0.0130
      3 C         139.6285  142.5643  163.7525 C.3     1  UNL1        0.1542
      4 C         140.2745  143.3423  162.6446 C.3     1  UNL1        0.0614
      5 C         140.3003  144.8411  162.6967 C.3     1  UNL1        0.0725
      6 N         139.6801  145.5620  163.8567 N.3     1  UNL1       -0.2972
      7 C         139.0340  144.7841  164.9646 C.3     1  UNL1        0.0725
      8 C         139.0082  143.2853  164.9124 C.3     1  UNL1        0.0614
      9 O         138.9824  141.7863  164.8604 O.3     1  UNL1       -0.4784
     10 C         138.9566  140.2875  164.8083 C.ar    1  UNL1        0.1416
     11 C         138.3105  139.5095  165.9162 C.ar    1  UNL1        0.0735
     12 C         138.2848  138.0107  165.8641 C.ar    1  UNL1        0.1367
     13 O         137.6387  137.2327  166.9719 O.3     1  UNL1       -0.5054
     14 C         138.9050  137.2897  164.7041 C.ar    1  UNL1        0.0368
     15 C         139.5511  138.0676  163.5962 C.ar    1  UNL1        0.0061
     16 C         139.5769  139.5666  163.6483 C.ar    1  UNL1        0.0340
     17 H         138.9631  146.1771  163.4718 H       1  UNL1        0.1233
     18 H         137.2512  137.6831  167.6965 H       1  UNL1        0.2922
     19 C         142.0837  138.1817  159.0605 C.ar    1  UNL1        0.0536
     20 C         140.6375  138.5765  159.0117 C.ar    1  UNL1        0.0045
     21 C         140.0172  139.2974  160.1716 C.ar    1  UNL1        0.0001
     22 C         140.8432  139.6236  161.3805 C.ar    1  UNL1       -0.0001
     23 C         142.2896  139.2288  161.4294 C.ar    1  UNL1        0.0001
     24 C         142.9098  138.5079  160.2694 C.ar    1  UNL1        0.0045
     25 N         143.1576  138.2299  156.6953 N.am    1  UNL1       -0.2761
     26 C         142.7040  137.4608  157.9005 C.2     1  UNL1        0.2490
     27 O         142.8707  135.9707  157.9459 O.2     1  UNL1       -0.2699
     28 C         142.9085  136.7824  154.5521 C.3     1  UNL1        0.0233
     29 C         143.7778  137.5089  155.5353 C.3     1  UNL1        0.0938
     30 C         142.9909  139.7199  156.6499 C.3     1  UNL1        0.0938
     31 C         141.9367  140.3304  155.7747 C.3     1  UNL1        0.0233
@<TRIPOS>BOND
     1    28    29    1
     2    29    25    1
     3    25    30    1
     4    30    31    1
     5    25    26   am
     6    26    27    2
     7    26    19    1
     8    19    20   ar
     9    20    21   ar
    10    21    22   ar
    11    22     1    1
    12     1     2    2
    13     2     3    1
    14     3     4    1
    15     4     5    1
    16     5     6    1
    17     6     7    1
    18     7     8    1
    19     3     9    1
    20     9    10    1
    21    10    11   ar
    22    11    12   ar
    23    12    13    1
    24    12    14   ar
    25    14    15   ar
    26    15    16   ar
    27    22    23   ar
    28    23    24   ar
    29    24    19   ar
    30    16     1    1
    31     8     3    1
    32    16    10   ar
    33     6    17    1
    34    13    18    1
@<TRIPOS>MOLECULE
*****
 31 34 0 0 0
SMALL
GASTEIGER

@<TRIPOS>ATOM
      1 C         140.4982  142.2820  161.7108 C.2     1  UNL1        0.0020
      2 C         141.9479  141.9045  161.7883 C.2     1  UNL1        0.0130
      3 C         142.7671  142.3143  162.9761 C.3     1  UNL1        0.1542
      4 C         143.3975  141.5270  161.8659 C.3     1  UNL1        0.0614
      5 C         144.8471  141.1495  161.9434 C.3     1  UNL1        0.0725
      6 N         145.6663  141.5593  163.1312 N.3     1  UNL1       -0.2972
      7 C         145.0360  142.3467  164.2414 C.3     1  UNL1        0.0725
      8 C         143.5863  142.7242  164.1639 C.3     1  UNL1        0.0614
      9 O         142.1367  143.1017  164.0864 O.3     1  UNL1       -0.4784
     10 C         140.6870  143.4792  164.0088 C.ar    1  UNL1        0.1416
     11 C         140.0566  144.2666  165.1191 C.ar    1  UNL1        0.0735
     12 C         138.6070  144.6441  165.0415 C.ar    1  UNL1        0.1367
     13 O         137.9766  145.4315  166.1518 O.3     1  UNL1       -0.5054
     14 C         137.7877  144.2343  163.8537 C.ar    1  UNL1        0.0368
     15 C         138.4181  143.4469  162.7435 C.ar    1  UNL1        0.0061
     16 C         139.8678  143.0694  162.8210 C.ar    1  UNL1        0.0340
     17 H         146.4407  142.1199  162.7755 H       1  UNL1        0.1233
     18 H         138.4884  145.6875  166.8937 H       1  UNL1        0.2922
     19 C         138.0404  141.0525  158.1474 C.ar    1  UNL1        0.0536
     20 C         138.3560  140.0541  159.2214 C.ar    1  UNL1        0.0045
     21 C         139.1752  140.4639  160.4092 C.ar    1  UNL1        0.0001
     22 C         139.6789  141.8722  160.5230 C.ar    1  UNL1       -0.0001
     23 C         139.3634  142.8707  159.4490 C.ar    1  UNL1        0.0001
     24 C         138.5441  142.4609  158.2612 C.ar    1  UNL1        0.0045
     25 N         137.8976  140.2834  155.6699 N.am    1  UNL1       -0.2761
     26 C         137.2212  140.6427  156.9596 C.2     1  UNL1        0.2490
     27 O         135.7254  140.5921  157.0615 O.2     1  UNL1       -0.2699
     28 C         136.7655  138.4249  154.2506 C.3     1  UNL1        0.0233
     29 C         137.0783  139.8736  154.4821 C.3     1  UNL1        0.0938
     30 C         139.3933  140.3340  155.5679 C.3     1  UNL1        0.0938
     31 C         140.2094  139.1213  155.9045 C.3     1  UNL1        0.0233
@<TRIPOS>BOND
     1    28    29    1
     2    29    25    1
     3    25    30    1
     4    30    31    1
     5    25    26   am
     6    26    27    2
     7    26    19    1
     8    19    20   ar
     9    20    21   ar
    10    21    22   ar
    11    22     1    1
    12     1     2    2
    13     2     3    1
    14     3     4    1
    15     4     5    1
    16     5     6    1
    17     6     7    1
    18     7     8    1
    19     3     9    1
    20     9    10    1
    21    10    11   ar
    22    11    12   ar
    23    12    13    1
    24    12    14   ar
    25    14    15   ar
    26    15    16   ar
    27    22    23   ar
    28    23    24   ar
    29    24    19   ar
    30    16     1    1
    31     8     3    1
    32    16    10   ar
    33     6    17    1
    34    13    18    1
@<TRIPOS>MOLECULE
*****
 31 34 0 0 0
SMALL
GASTEIGER

@<TRIPOS>ATOM
      1 C         141.5613  141.3225  162.1319 C.2     1  UNL1        0.0020
      2 C         142.5931  141.7289  161.1218 C.2     1  UNL1        0.0130
      3 C         142.2904  141.6232  159.6564 C.3     1  UNL1        0.1542
      4 C         143.6247  142.1353  160.1116 C.3     1  UNL1        0.0614
      5 C         144.6564  142.5417  159.1014 C.3     1  UNL1        0.0725
      6 N         144.3537  142.4360  157.6361 N.3     1  UNL1       -0.2972
      7 C         143.0194  141.9239  157.1809 C.3     1  UNL1        0.0725
      8 C         141.9877  141.5175  158.1911 C.3     1  UNL1        0.0614
      9 O         140.9560  141.1111  159.2013 O.3     1  UNL1       -0.4784
     10 C         139.9243  140.7047  160.2114 C.ar    1  UNL1        0.1416
     11 C         138.5899  140.1926  159.7563 C.ar    1  UNL1        0.0735
     12 C         137.5582  139.7861  160.7664 C.ar    1  UNL1        0.1367
     13 O         136.2239  139.2740  160.3113 O.3     1  UNL1       -0.5054
     14 C         137.8609  139.8918  162.2318 C.ar    1  UNL1        0.0368
     15 C         139.1953  140.4039  162.6870 C.ar    1  UNL1        0.0061
     16 C         140.2270  140.8104  161.6768 C.ar    1  UNL1        0.0340
     17 H         145.0589  141.8188  157.2335 H       1  UNL1        0.1233
     18 H         136.0348  139.2080  159.3959 H       1  UNL1        0.2922
     19 C         142.4694  141.6395  166.5280 C.ar    1  UNL1        0.0536
     20 C         141.5676  142.6440  165.8741 C.ar    1  UNL1        0.0045
     21 C         141.2649  142.5383  164.4087 C.ar    1  UNL1        0.0001
     22 C         141.8640  141.4282  163.5973 C.ar    1  UNL1       -0.0001
     23 C         142.7659  140.4236  164.2512 C.ar    1  UNL1        0.0001
     24 C         143.0686  140.5293  165.7165 C.ar    1  UNL1        0.0045
     25 N         142.0486  140.8704  168.9736 N.am    1  UNL1       -0.2761
     26 C         142.7721  141.7452  167.9933 C.2     1  UNL1        0.2490
     27 O         143.7984  142.7259  168.4783 O.2     1  UNL1       -0.2699
     28 C         141.4720  141.8041  171.3286 C.3     1  UNL1        0.0233
     29 C         142.3512  140.9761  170.4389 C.3     1  UNL1        0.0938
     30 C         141.0223  139.8897  168.4886 C.3     1  UNL1        0.0938
     31 C         139.5783  140.2894  168.4165 C.3     1  UNL1        0.0233
@<TRIPOS>BOND
     1    28    29    1
     2    29    25    1
     3    25    30    1
     4    30    31    1
     5    25    26   am
     6    26    27    2
     7    26    19    1
     8    19    20   ar
     9    20    21   ar
    10    21    22   ar
    11    22     1    1
    12     1     2    2
    13     2     3    1
    14     3     4    1
    15     4     5    1
    16     5     6    1
    17     6     7    1
    18     7     8    1
    19     3     9    1
    20     9    10    1
    21    10    11   ar
    22    11    12   ar
    23    12    13    1
    24    12    14   ar
    25    14    15   ar
    26    15    16   ar
    27    22    23   ar
    28    23    24   ar
    29    24    19   ar
    30    16     1    1
    31     8     3    1
    32    16    10   ar
    33     6    17    1
    34    13    18    1
