@<TRIPOS>MOLECULE
*****
 29 32 0 0 0
SMALL
GASTEIGER

@<TRIPOS>ATOM
      1 N         139.5459  140.4760  166.3067 N.ar    1  UNL1       -0.2156
      2 N         140.4835  141.2684  165.4447 N.ar    1  UNL1       -0.1708
      3 C         141.7031  141.9005  166.0472 C.ar    1  UNL1        0.0832
      4 C         141.9851  141.7401  167.5117 C.ar    1  UNL1        0.0202
      5 C         143.2047  142.3721  168.1142 C.ar    1  UNL1        0.0014
      6 C         143.4867  142.2117  169.5787 C.ar    1  UNL1        0.0000
      7 C         142.5492  141.4193  170.4407 C.ar    1  UNL1        0.0002
      8 C         141.3296  140.7872  169.8382 C.ar    1  UNL1        0.0048
      9 C         141.0476  140.9476  168.3737 C.ar    1  UNL1        0.0588
     10 C         139.8279  140.3156  167.7711 C.ar    1  UNL1        0.2763
     11 O         138.8903  139.5231  168.6331 O.2     1  UNL1       -0.2655
     12 C         138.3262  139.8439  165.7041 C.3     1  UNL1        0.1465
     13 N         137.8889  140.1266  163.0823 N.3     1  UNL1       -0.2700
     14 C         138.1018  139.2657  161.8726 C.3     1  UNL1        0.0722
     15 C         138.7003  137.9675  162.3270 C.3     1  UNL1        0.0188
     16 C         138.8572  138.0261  163.8177 C.3     1  UNL1        0.0194
     17 C         138.3557  139.3605  164.2845 C.3     1  UNL1        0.0822
     18 C         137.3106  141.5106  163.0888 C.3     1  UNL1        0.1046
     19 C         138.0723  142.6447  162.4695 C.3     1  UNL1        0.1595
     20 C         138.5197  142.4502  159.9177 C.3     1  UNL1        0.1742
     21 O         137.7733  143.0691  161.0622 O.3     1  UNL1       -0.3496
     22 C         142.6406  142.6929  165.1852 C.3     1  UNL1        0.0738
     23 C         142.1266  143.3865  163.9586 C.ar    1  UNL1       -0.0161
     24 C         142.3216  142.7641  162.6078 C.ar    1  UNL1       -0.0030
     25 C         141.8076  143.4576  161.3812 C.ar    1  UNL1        0.0111
     26 C         141.0985  144.7736  161.5052 C.ar    1  UNL1        0.0577
     27 CL        140.5845  145.4672  160.2786 Cl      1  UNL1       -0.0822
     28 C         140.9036  145.3961  162.8560 C.ar    1  UNL1        0.0111
     29 C         141.4176  144.7025  164.0827 C.ar    1  UNL1       -0.0030
@<TRIPOS>BOND
     1    20    21    1
     2    21    19    1
     3    19    18    1
     4    18    13    1
     5    13    14    1
     6    14    15    1
     7    15    16    1
     8    16    17    1
     9    17    12    1
    10    12     1    1
    11     1     2   ar
    12     2     3   ar
    13     3    22    1
    14    22    23    1
    15    23    24   ar
    16    24    25   ar
    17    25    26   ar
    18    26    27    1
    19    26    28   ar
    20    28    29   ar
    21     3     4   ar
    22     4     5   ar
    23     5     6   ar
    24     6     7   ar
    25     7     8   ar
    26     8     9   ar
    27     9    10   ar
    28    10    11    2
    29    17    13    1
    30    10     1   ar
    31    29    23   ar
    32     9     4   ar
@<TRIPOS>MOLECULE
*****
 29 32 0 0 0
SMALL
GASTEIGER

@<TRIPOS>ATOM
      1 N         139.2321  139.2649  165.5550 N.ar    1  UNL1       -0.2156
      2 N         140.1599  140.3217  165.0331 N.ar    1  UNL1       -0.1708
      3 C         140.6890  141.3781  165.9572 C.ar    1  UNL1        0.0832
      4 C         140.2901  141.3778  167.4033 C.ar    1  UNL1        0.0202
      5 C         140.8191  142.4343  168.3274 C.ar    1  UNL1        0.0014
      6 C         140.4203  142.4340  169.7733 C.ar    1  UNL1        0.0000
      7 C         139.4924  141.3772  170.2952 C.ar    1  UNL1        0.0002
      8 C         138.9634  140.3208  169.3711 C.ar    1  UNL1        0.0048
      9 C         139.3622  140.3211  167.9251 C.ar    1  UNL1        0.0588
     10 C         138.8332  139.2646  167.0009 C.ar    1  UNL1        0.2763
     11 O         137.9054  138.2079  167.5228 O.2     1  UNL1       -0.2655
     12 C         138.7031  138.2084  164.6308 C.3     1  UNL1        0.1465
     13 N         140.2295  137.9693  162.4496 N.3     1  UNL1       -0.2700
     14 C         140.0318  138.2200  160.9839 C.3     1  UNL1        0.0722
     15 C         138.6305  138.7164  160.7834 C.3     1  UNL1        0.0188
     16 C         137.9622  138.7725  162.1252 C.3     1  UNL1        0.0194
     17 C         138.9504  138.3108  163.1549 C.3     1  UNL1        0.0822
     18 C         141.4856  137.4656  163.0963 C.3     1  UNL1        0.1046
     19 C         142.7750  138.2096  162.9111 C.3     1  UNL1        0.1595
     20 C         143.9996  138.8622  160.7147 C.3     1  UNL1        0.1742
     21 O         143.6917  137.8513  161.7793 O.3     1  UNL1       -0.3496
     22 C         141.6168  142.4349  165.4354 C.3     1  UNL1        0.0738
     23 C         141.1095  143.4720  164.4778 C.ar    1  UNL1       -0.0161
     24 C         142.0624  144.1669  163.5507 C.ar    1  UNL1       -0.0030
     25 C         141.5551  145.2040  162.5932 C.ar    1  UNL1        0.0111
     26 C         140.0950  145.5463  162.5626 C.ar    1  UNL1        0.0577
     27 CL        139.5877  146.5834  161.6050 Cl      1  UNL1       -0.0822
     28 C         139.1422  144.8515  163.4895 C.ar    1  UNL1        0.0111
     29 C         139.6494  143.8143  164.4472 C.ar    1  UNL1       -0.0030
@<TRIPOS>BOND
     1    20    21    1
     2    21    19    1
     3    19    18    1
     4    18    13    1
     5    13    14    1
     6    14    15    1
     7    15    16    1
     8    16    17    1
     9    17    12    1
    10    12     1    1
    11     1     2   ar
    12     2     3   ar
    13     3    22    1
    14    22    23    1
    15    23    24   ar
    16    24    25   ar
    17    25    26   ar
    18    26    27    1
    19    26    28   ar
    20    28    29   ar
    21     3     4   ar
    22     4     5   ar
    23     5     6   ar
    24     6     7   ar
    25     7     8   ar
    26     8     9   ar
    27     9    10   ar
    28    10    11    2
    29    17    13    1
    30    10     1   ar
    31    29    23   ar
    32     9     4   ar
@<TRIPOS>MOLECULE
*****
 29 32 0 0 0
SMALL
GASTEIGER

@<TRIPOS>ATOM
      1 N         140.3472  140.2139  166.2864 N.ar    1  UNL1       -0.2156
      2 N         141.5427  140.9907  165.8202 N.ar    1  UNL1       -0.1708
      3 C         142.3662  141.7639  166.8070 C.ar    1  UNL1        0.0832
      4 C         141.9942  141.7605  168.2602 C.ar    1  UNL1        0.0202
      5 C         142.8177  142.5337  169.2470 C.ar    1  UNL1        0.0014
      6 C         142.4456  142.5302  170.7001 C.ar    1  UNL1        0.0000
      7 C         141.2501  141.7535  171.1664 C.ar    1  UNL1        0.0002
      8 C         140.4266  140.9802  170.1795 C.ar    1  UNL1        0.0048
      9 C         140.7987  140.9837  168.7264 C.ar    1  UNL1        0.0588
     10 C         139.9752  140.2104  167.7395 C.ar    1  UNL1        0.2763
     11 O         138.7797  139.4337  168.2058 O.2     1  UNL1       -0.2655
     12 C         139.5237  139.4406  165.2995 C.3     1  UNL1        0.1465
     13 N         138.2251  139.6175  162.9699 N.3     1  UNL1       -0.2700
     14 C         137.4232  140.6814  162.2806 C.3     1  UNL1        0.0722
     15 C         137.3928  141.8885  163.1705 C.3     1  UNL1        0.0188
     16 C         138.1760  141.5707  164.4097 C.3     1  UNL1        0.0194
     17 C         138.6904  140.1671  164.2857 C.3     1  UNL1        0.0822
     18 C         138.5115  138.2449  162.4368 C.3     1  UNL1        0.1046
     19 C         139.8294  137.9544  161.7820 C.3     1  UNL1        0.1595
     20 C         142.1208  137.9259  163.0061 C.3     1  UNL1        0.1742
     21 O         140.8916  137.2079  162.5332 O.3     1  UNL1       -0.3496
     22 C         143.5617  142.5407  166.3407 C.3     1  UNL1        0.0738
     23 C         143.9201  142.5633  164.8844 C.ar    1  UNL1       -0.0161
     24 C         144.7972  141.4899  164.3111 C.ar    1  UNL1       -0.0030
     25 C         145.1556  141.5125  162.8547 C.ar    1  UNL1        0.0111
     26 C         144.6368  142.6084  161.9716 C.ar    1  UNL1        0.0577
     27 CL        144.9952  142.6310  160.5152 Cl      1  UNL1       -0.0822
     28 C         143.7597  143.6817  162.5448 C.ar    1  UNL1        0.0111
     29 C         143.4013  143.6592  164.0013 C.ar    1  UNL1       -0.0030
@<TRIPOS>BOND
     1    20    21    1
     2    21    19    1
     3    19    18    1
     4    18    13    1
     5    13    14    1
     6    14    15    1
     7    15    16    1
     8    16    17    1
     9    17    12    1
    10    12     1    1
    11     1     2   ar
    12     2     3   ar
    13     3    22    1
    14    22    23    1
    15    23    24   ar
    16    24    25   ar
    17    25    26   ar
    18    26    27    1
    19    26    28   ar
    20    28    29   ar
    21     3     4   ar
    22     4     5   ar
    23     5     6   ar
    24     6     7   ar
    25     7     8   ar
    26     8     9   ar
    27     9    10   ar
    28    10    11    2
    29    17    13    1
    30    10     1   ar
    31    29    23   ar
    32     9     4   ar
@<TRIPOS>MOLECULE
*****
 29 32 0 0 0
SMALL
GASTEIGER

@<TRIPOS>ATOM
      1 N         139.6913  140.8981  166.1971 N.ar    1  UNL1       -0.2156
      2 N         140.8349  141.7604  165.7514 N.ar    1  UNL1       -0.1708
      3 C         142.0127  141.9706  166.6561 C.ar    1  UNL1        0.0832
      4 C         142.0470  141.3184  168.0065 C.ar    1  UNL1        0.0202
      5 C         143.2249  141.5286  168.9112 C.ar    1  UNL1        0.0014
      6 C         143.2591  140.8764  170.2615 C.ar    1  UNL1        0.0000
      7 C         142.1155  140.0141  170.7072 C.ar    1  UNL1        0.0002
      8 C         140.9377  139.8039  169.8025 C.ar    1  UNL1        0.0048
      9 C         140.9034  140.4561  168.4522 C.ar    1  UNL1        0.0588
     10 C         139.7256  140.2460  167.5474 C.ar    1  UNL1        0.2763
     11 O         138.5820  139.3837  167.9931 O.2     1  UNL1       -0.2655
     12 C         138.5135  140.6880  165.2923 C.3     1  UNL1        0.1465
     13 N         138.0758  139.7485  162.8285 N.3     1  UNL1       -0.2700
     14 C         138.3077  138.4381  162.1362 C.3     1  UNL1        0.0722
     15 C         138.9303  137.4960  163.1236 C.3     1  UNL1        0.0188
     16 C         139.0831  138.2242  164.4261 C.3     1  UNL1        0.0194
     17 C         138.5550  139.6163  164.2437 C.3     1  UNL1        0.0822
     18 C         137.4708  140.9756  162.2134 C.3     1  UNL1        0.1046
     19 C         138.3560  142.0809  161.7187 C.3     1  UNL1        0.1595
     20 C         137.7801  144.2153  163.0835 C.3     1  UNL1        0.1742
     21 O         137.8793  143.5023  161.7675 O.3     1  UNL1       -0.3496
     22 C         143.1563  142.8329  166.2104 C.3     1  UNL1        0.0738
     23 C         143.6250  142.7802  164.7865 C.ar    1  UNL1       -0.0161
     24 C         143.3524  143.9312  163.8641 C.ar    1  UNL1       -0.0030
     25 C         143.8210  143.8785  162.4402 C.ar    1  UNL1        0.0111
     26 C         144.5622  142.6747  161.9386 C.ar    1  UNL1        0.0577
     27 CL        145.0309  142.6219  160.5147 Cl      1  UNL1       -0.0822
     28 C         144.8348  141.5237  162.8610 C.ar    1  UNL1        0.0111
     29 C         144.3662  141.5764  164.2850 C.ar    1  UNL1       -0.0030
@<TRIPOS>BOND
     1    20    21    1
     2    21    19    1
     3    19    18    1
     4    18    13    1
     5    13    14    1
     6    14    15    1
     7    15    16    1
     8    16    17    1
     9    17    12    1
    10    12     1    1
    11     1     2   ar
    12     2     3   ar
    13     3    22    1
    14    22    23    1
    15    23    24   ar
    16    24    25   ar
    17    25    26   ar
    18    26    27    1
    19    26    28   ar
    20    28    29   ar
    21     3     4   ar
    22     4     5   ar
    23     5     6   ar
    24     6     7   ar
    25     7     8   ar
    26     8     9   ar
    27     9    10   ar
    28    10    11    2
    29    17    13    1
    30    10     1   ar
    31    29    23   ar
    32     9     4   ar
@<TRIPOS>MOLECULE
*****
 29 32 0 0 0
SMALL
GASTEIGER

@<TRIPOS>ATOM
      1 N         142.7245  141.1648  166.0237 N.ar    1  UNL1       -0.2156
      2 N         141.6740  140.2215  165.5171 N.ar    1  UNL1       -0.1708
      3 C         140.5058  139.8627  166.3869 C.ar    1  UNL1        0.0832
      4 C         140.3881  140.4472  167.7633 C.ar    1  UNL1        0.0202
      5 C         139.2199  140.0884  168.6331 C.ar    1  UNL1        0.0014
      6 C         139.1023  140.6729  170.0095 C.ar    1  UNL1        0.0000
      7 C         140.1528  141.6162  170.5161 C.ar    1  UNL1        0.0002
      8 C         141.3210  141.9750  169.6463 C.ar    1  UNL1        0.0048
      9 C         141.4386  141.3905  168.2699 C.ar    1  UNL1        0.0588
     10 C         142.6069  141.7493  167.4001 C.ar    1  UNL1        0.2763
     11 O         143.6574  142.6926  167.9066 O.2     1  UNL1       -0.2655
     12 C         143.8928  141.5236  165.1538 C.3     1  UNL1        0.1465
     13 N         143.4290  142.5199  162.7172 N.3     1  UNL1       -0.2700
     14 C         143.4265  143.8941  162.1160 C.3     1  UNL1        0.0722
     15 C         143.7735  144.8739  163.1976 C.3     1  UNL1        0.0188
     16 C         143.9904  144.1051  164.4672 C.3     1  UNL1        0.0194
     17 C         143.7775  142.6502  164.1703 C.3     1  UNL1        0.0822
     18 C         143.1346  141.2400  161.9925 C.3     1  UNL1        0.1046
     19 C         144.2311  140.2453  161.7512 C.3     1  UNL1        0.1595
     20 C         142.8099  138.2723  162.6660 C.3     1  UNL1        0.1742
     21 O         144.1480  138.8757  162.3571 O.3     1  UNL1       -0.3496
     22 C         139.4553  138.9194  165.8803 C.3     1  UNL1        0.0738
     23 C         138.8889  139.0974  164.5028 C.ar    1  UNL1       -0.0161
     24 C         138.2169  140.3852  164.1287 C.ar    1  UNL1       -0.0030
     25 C         137.6505  140.5631  162.7512 C.ar    1  UNL1        0.0111
     26 C         137.7561  139.4532  161.7478 C.ar    1  UNL1        0.0577
     27 CL        137.1897  139.6311  160.3703 Cl      1  UNL1       -0.0822
     28 C         138.4281  138.1654  162.1218 C.ar    1  UNL1        0.0111
     29 C         138.9945  137.9875  163.4993 C.ar    1  UNL1       -0.0030
@<TRIPOS>BOND
     1    20    21    1
     2    21    19    1
     3    19    18    1
     4    18    13    1
     5    13    14    1
     6    14    15    1
     7    15    16    1
     8    16    17    1
     9    17    12    1
    10    12     1    1
    11     1     2   ar
    12     2     3   ar
    13     3    22    1
    14    22    23    1
    15    23    24   ar
    16    24    25   ar
    17    25    26   ar
    18    26    27    1
    19    26    28   ar
    20    28    29   ar
    21     3     4   ar
    22     4     5   ar
    23     5     6   ar
    24     6     7   ar
    25     7     8   ar
    26     8     9   ar
    27     9    10   ar
    28    10    11    2
    29    17    13    1
    30    10     1   ar
    31    29    23   ar
    32     9     4   ar
@<TRIPOS>MOLECULE
*****
 29 32 0 0 0
SMALL
GASTEIGER

@<TRIPOS>ATOM
      1 N         141.0924  139.8248  163.0001 N.ar    1  UNL1       -0.2156
      2 N         140.9482  141.0736  163.8184 N.ar    1  UNL1       -0.1708
      3 C         140.0930  141.0683  165.0507 C.ar    1  UNL1        0.0832
      4 C         139.3820  139.8140  165.4647 C.ar    1  UNL1        0.0202
      5 C         138.5268  139.8087  166.6970 C.ar    1  UNL1        0.0014
      6 C         137.8158  138.5545  167.1110 C.ar    1  UNL1        0.0000
      7 C         137.9599  137.3056  166.2926 C.ar    1  UNL1        0.0002
      8 C         138.8151  137.3110  165.0604 C.ar    1  UNL1        0.0048
      9 C         139.5262  138.5652  164.6464 C.ar    1  UNL1        0.0588
     10 C         140.3814  138.5706  163.4141 C.ar    1  UNL1        0.2763
     11 O         140.5256  137.3218  162.5957 O.2     1  UNL1       -0.2655
     12 C         141.9477  139.8302  161.7678 C.3     1  UNL1        0.1465
     13 N         144.3493  140.8393  162.3668 N.3     1  UNL1       -0.2700
     14 C         145.1444  142.0269  161.9115 C.3     1  UNL1        0.0722
     15 C         144.3336  142.7618  160.8855 C.3     1  UNL1        0.0188
     16 C         143.0375  142.0283  160.7068 C.3     1  UNL1        0.0194
     17 C         143.0471  140.8402  161.6223 C.3     1  UNL1        0.0822
     18 C         144.7807  139.8283  163.3875 C.3     1  UNL1        0.1046
     19 C         144.2239  139.8829  164.7793 C.3     1  UNL1        0.1595
     20 C         143.1747  138.6791  166.8286 C.3     1  UNL1        0.1742
     21 O         143.6457  138.6483  165.4048 O.3     1  UNL1       -0.3496
     22 C         139.9489  142.3171  165.8690 C.3     1  UNL1        0.0738
     23 C         140.7812  142.5058  167.1025 C.ar    1  UNL1       -0.0161
     24 C         142.2286  142.1117  167.0982 C.ar    1  UNL1       -0.0030
     25 C         143.0609  142.3004  168.3317 C.ar    1  UNL1        0.0111
     26 C         142.4460  142.8832  169.5695 C.ar    1  UNL1        0.0577
     27 CL        143.2784  143.0718  170.8030 Cl      1  UNL1       -0.0822
     28 C         140.9988  143.2772  169.5739 C.ar    1  UNL1        0.0111
     29 C         140.1663  143.0886  168.3403 C.ar    1  UNL1       -0.0030
@<TRIPOS>BOND
     1    20    21    1
     2    21    19    1
     3    19    18    1
     4    18    13    1
     5    13    14    1
     6    14    15    1
     7    15    16    1
     8    16    17    1
     9    17    12    1
    10    12     1    1
    11     1     2   ar
    12     2     3   ar
    13     3    22    1
    14    22    23    1
    15    23    24   ar
    16    24    25   ar
    17    25    26   ar
    18    26    27    1
    19    26    28   ar
    20    28    29   ar
    21     3     4   ar
    22     4     5   ar
    23     5     6   ar
    24     6     7   ar
    25     7     8   ar
    26     8     9   ar
    27     9    10   ar
    28    10    11    2
    29    17    13    1
    30    10     1   ar
    31    29    23   ar
    32     9     4   ar
@<TRIPOS>MOLECULE
*****
 29 32 0 0 0
SMALL
GASTEIGER

@<TRIPOS>ATOM
      1 N         142.3633  139.9893  166.6098 N.ar    1  UNL1       -0.2156
      2 N         141.6299  141.1141  165.9412 N.ar    1  UNL1       -0.1708
      3 C         140.9115  142.1379  166.7691 C.ar    1  UNL1        0.0832
      4 C         140.9264  142.0371  168.2657 C.ar    1  UNL1        0.0202
      5 C         140.2079  143.0609  169.0936 C.ar    1  UNL1        0.0014
      6 C         140.2229  142.9600  170.5901 C.ar    1  UNL1        0.0000
      7 C         140.9562  141.8352  171.2587 C.ar    1  UNL1        0.0002
      8 C         141.6747  140.8113  170.4308 C.ar    1  UNL1        0.0048
      9 C         141.6597  140.9123  168.9343 C.ar    1  UNL1        0.0588
     10 C         142.3782  139.8883  168.1063 C.ar    1  UNL1        0.2763
     11 O         143.1116  138.7635  168.7749 O.2     1  UNL1       -0.2655
     12 C         143.0817  138.9653  165.7818 C.3     1  UNL1        0.1465
     13 N         142.9055  138.3766  163.1805 N.3     1  UNL1       -0.2700
     14 C         141.9157  137.6450  162.3232 C.3     1  UNL1        0.0722
     15 C         140.8013  137.1674  163.2065 C.3     1  UNL1        0.0188
     16 C         141.1025  137.6039  164.6096 C.3     1  UNL1        0.0194
     17 C         142.4030  138.3512  164.5935 C.3     1  UNL1        0.0822
     18 C         144.1751  139.0205  162.7076 C.3     1  UNL1        0.1046
     19 C         144.1526  140.4242  162.1792 C.3     1  UNL1        0.1595
     20 C         145.8385  141.6232  163.7507 C.3     1  UNL1        0.1742
     21 O         145.3437  141.3160  162.3683 O.3     1  UNL1       -0.3496
     22 C         140.1781  143.2627  166.1005 C.3     1  UNL1        0.0738
     23 C         139.6643  143.0961  164.7012 C.ar    1  UNL1       -0.0161
     24 C         140.5077  143.5235  163.5367 C.ar    1  UNL1       -0.0030
     25 C         139.9939  143.3569  162.1373 C.ar    1  UNL1        0.0111
     26 C         138.6367  142.7629  161.9024 C.ar    1  UNL1        0.0577
     27 CL        138.1229  142.5963  160.5031 Cl      1  UNL1       -0.0822
     28 C         137.7933  142.3356  163.0669 C.ar    1  UNL1        0.0111
     29 C         138.3071  142.5022  164.4663 C.ar    1  UNL1       -0.0030
@<TRIPOS>BOND
     1    20    21    1
     2    21    19    1
     3    19    18    1
     4    18    13    1
     5    13    14    1
     6    14    15    1
     7    15    16    1
     8    16    17    1
     9    17    12    1
    10    12     1    1
    11     1     2   ar
    12     2     3   ar
    13     3    22    1
    14    22    23    1
    15    23    24   ar
    16    24    25   ar
    17    25    26   ar
    18    26    27    1
    19    26    28   ar
    20    28    29   ar
    21     3     4   ar
    22     4     5   ar
    23     5     6   ar
    24     6     7   ar
    25     7     8   ar
    26     8     9   ar
    27     9    10   ar
    28    10    11    2
    29    17    13    1
    30    10     1   ar
    31    29    23   ar
    32     9     4   ar
@<TRIPOS>MOLECULE
*****
 29 32 0 0 0
SMALL
GASTEIGER

@<TRIPOS>ATOM
      1 N         139.5763  140.6019  166.1286 N.ar    1  UNL1       -0.2156
      2 N         140.5493  141.4590  165.3745 N.ar    1  UNL1       -0.1708
      3 C         141.7518  142.0211  166.0731 C.ar    1  UNL1        0.0832
      4 C         141.9813  141.7262  167.5258 C.ar    1  UNL1        0.0202
      5 C         143.1837  142.2883  168.2244 C.ar    1  UNL1        0.0014
      6 C         143.4132  141.9934  169.6771 C.ar    1  UNL1        0.0000
      7 C         142.4402  141.1363  170.4312 C.ar    1  UNL1        0.0002
      8 C         141.2377  140.5741  169.7326 C.ar    1  UNL1        0.0048
      9 C         141.0083  140.8691  168.2799 C.ar    1  UNL1        0.0588
     10 C         139.8057  140.3070  167.5813 C.ar    1  UNL1        0.2763
     11 O         138.8327  139.4499  168.3354 O.2     1  UNL1       -0.2655
     12 C         138.3738  140.0398  165.4299 C.3     1  UNL1        0.1465
     13 N         139.3951  138.2429  163.7350 N.3     1  UNL1       -0.2700
     14 C         139.2308  137.9509  162.2729 C.3     1  UNL1        0.0722
     15 C         138.2528  138.9391  161.7098 C.3     1  UNL1        0.0188
     16 C         137.8128  139.8419  162.8240 C.3     1  UNL1        0.0194
     17 C         138.5187  139.4116  164.0756 C.3     1  UNL1        0.0822
     18 C         140.2804  137.4971  164.6889 C.3     1  UNL1        0.1046
     19 C         141.7463  137.8092  164.7520 C.3     1  UNL1        0.1595
     20 C         143.7397  138.2141  166.3682 C.3     1  UNL1        0.1742
     21 O         142.3190  138.4785  165.9661 O.3     1  UNL1       -0.3496
     22 C         142.7248  142.8782  165.3190 C.3     1  UNL1        0.0738
     23 C         142.3242  143.4956  164.0120 C.ar    1  UNL1       -0.0161
     24 C         141.4654  144.7254  163.9954 C.ar    1  UNL1       -0.0030
     25 C         141.0648  145.3428  162.6884 C.ar    1  UNL1        0.0111
     26 C         141.5229  144.7305  161.3979 C.ar    1  UNL1        0.0577
     27 CL        141.1223  145.3479  160.0910 Cl      1  UNL1       -0.0822
     28 C         142.3817  143.5008  161.4145 C.ar    1  UNL1        0.0111
     29 C         142.7823  142.8833  162.7215 C.ar    1  UNL1       -0.0030
@<TRIPOS>BOND
     1    20    21    1
     2    21    19    1
     3    19    18    1
     4    18    13    1
     5    13    14    1
     6    14    15    1
     7    15    16    1
     8    16    17    1
     9    17    12    1
    10    12     1    1
    11     1     2   ar
    12     2     3   ar
    13     3    22    1
    14    22    23    1
    15    23    24   ar
    16    24    25   ar
    17    25    26   ar
    18    26    27    1
    19    26    28   ar
    20    28    29   ar
    21     3     4   ar
    22     4     5   ar
    23     5     6   ar
    24     6     7   ar
    25     7     8   ar
    26     8     9   ar
    27     9    10   ar
    28    10    11    2
    29    17    13    1
    30    10     1   ar
    31    29    23   ar
    32     9     4   ar
@<TRIPOS>MOLECULE
*****
 29 32 0 0 0
SMALL
GASTEIGER

@<TRIPOS>ATOM
      1 N         138.8857  139.3668  161.6937 N.ar    1  UNL1       -0.2156
      2 N         138.7231  138.9563  163.1273 N.ar    1  UNL1       -0.1708
      3 C         138.3962  139.9845  164.1694 C.ar    1  UNL1        0.0832
      4 C         138.2319  141.4232  163.7779 C.ar    1  UNL1        0.0202
      5 C         137.9051  142.4514  164.8200 C.ar    1  UNL1        0.0014
      6 C         137.7408  143.8900  164.4286 C.ar    1  UNL1        0.0000
      7 C         137.9034  144.3005  162.9950 C.ar    1  UNL1        0.0002
      8 C         138.2302  143.2723  161.9529 C.ar    1  UNL1        0.0048
      9 C         138.3945  141.8337  162.3444 C.ar    1  UNL1        0.0588
     10 C         138.7214  140.8054  161.3023 C.ar    1  UNL1        0.2763
     11 O         138.8840  141.2159  159.8687 O.2     1  UNL1       -0.2655
     12 C         139.2125  138.3386  160.6516 C.3     1  UNL1        0.1465
     13 N         141.8729  138.0878  160.7159 N.3     1  UNL1       -0.2700
     14 C         142.9701  138.1604  159.6957 C.3     1  UNL1        0.0722
     15 C         142.3447  138.4411  158.3615 C.3     1  UNL1        0.0188
     16 C         140.8609  138.5420  158.5572 C.3     1  UNL1        0.0194
     17 C         140.5694  138.3237  160.0123 C.3     1  UNL1        0.0822
     18 C         142.0485  137.8254  162.1823 C.3     1  UNL1        0.1046
     19 C         142.7242  138.8446  163.0511 C.3     1  UNL1        0.1595
     20 C         144.9169  139.4632  164.2997 C.3     1  UNL1        0.1742
     21 O         144.2215  138.9288  163.0828 O.3     1  UNL1       -0.3496
     22 C         138.2337  139.5740  165.6029 C.3     1  UNL1        0.0738
     23 C         139.3863  139.6998  166.5544 C.ar    1  UNL1       -0.0161
     24 C         139.1316  139.9198  168.0162 C.ar    1  UNL1       -0.0030
     25 C         140.2843  140.0457  168.9678 C.ar    1  UNL1        0.0111
     26 C         141.6917  139.9515  168.4576 C.ar    1  UNL1        0.0577
     27 CL        142.8444  140.0773  169.4091 Cl      1  UNL1       -0.0822
     28 C         141.9465  139.7315  166.9959 C.ar    1  UNL1        0.0111
     29 C         140.7938  139.6056  166.0442 C.ar    1  UNL1       -0.0030
@<TRIPOS>BOND
     1    20    21    1
     2    21    19    1
     3    19    18    1
     4    18    13    1
     5    13    14    1
     6    14    15    1
     7    15    16    1
     8    16    17    1
     9    17    12    1
    10    12     1    1
    11     1     2   ar
    12     2     3   ar
    13     3    22    1
    14    22    23    1
    15    23    24   ar
    16    24    25   ar
    17    25    26   ar
    18    26    27    1
    19    26    28   ar
    20    28    29   ar
    21     3     4   ar
    22     4     5   ar
    23     5     6   ar
    24     6     7   ar
    25     7     8   ar
    26     8     9   ar
    27     9    10   ar
    28    10    11    2
    29    17    13    1
    30    10     1   ar
    31    29    23   ar
    32     9     4   ar
