@<TRIPOS>MOLECULE
*****
 31 33 0 0 0
SMALL
GASTEIGER

@<TRIPOS>ATOM
      1 C         140.1373  140.4091  167.8014 C.ar    1  UNL1        0.0555
      2 C         140.6118  140.3505  166.3797 C.ar    1  UNL1        0.0168
      3 C         139.7917  139.6399  165.3441 C.ar    1  UNL1        0.0505
      4 C         138.4972  138.9878  165.7302 C.ar    1  UNL1        0.0170
      5 C         138.0227  139.0464  167.1520 C.ar    1  UNL1        0.0307
      6 C         138.8428  139.7570  168.1876 C.ar    1  UNL1        0.1402
      7 F         138.3683  139.8157  169.6094 F       1  UNL1       -0.2044
      8 C         140.1906  142.2785  168.2718 C.3     1  UNL1        0.0638
      9 C         140.9573  141.1197  168.8371 C.3     1  UNL1        0.2513
     10 N         141.4392  139.7142  169.0427 N.2     1  UNL1       -0.0663
     11 C         142.4749  139.4217  170.0876 C.2     1  UNL1        0.3195
     12 N         142.9567  138.0162  170.2932 N.pl3   1  UNL1       -0.2480
     13 C         143.0286  140.5348  170.9270 C.3     1  UNL1        0.2611
     14 O         142.5467  141.9403  170.7214 O.3     1  UNL1       -0.3108
     15 C         141.5111  142.2328  169.6765 C.3     1  UNL1        0.3281
     16 F         141.0291  143.6383  169.4708 F       1  UNL1       -0.1989
     17 H         142.5933  137.2856  169.7423 H       1  UNL1        0.2882
     18 H         143.6365  137.8242  170.9790 H       1  UNL1        0.2882
     19 N         140.2662  139.5812  163.9223 N.am    1  UNL1       -0.2791
     20 C         141.0837  138.4148  163.4519 C.2     1  UNL1        0.2695
     21 O         141.4267  137.3070  164.4034 O.2     1  UNL1       -0.2681
     22 H         140.0411  140.3083  163.2978 H       1  UNL1        0.1552
     23 C         141.5581  138.3562  162.0302 C.ar    1  UNL1        0.1621
     24 N         140.5646  138.3746  160.9066 N.ar    1  UNL1       -0.2363
     25 C         141.0391  138.3159  159.4847 C.ar    1  UNL1        0.1094
     26 C         142.5071  138.2388  159.1866 C.ar    1  UNL1        0.0898
     27 C         143.5007  138.2204  160.3102 C.ar    1  UNL1        0.0432
     28 C         143.0262  138.2791  161.7320 C.ar    1  UNL1        0.1628
     29 F         144.0198  138.2607  162.8556 F       1  UNL1       -0.2024
     30 C         142.9816  138.1802  157.7649 C.1     1  UNL1        0.1021
     31 N         143.4561  138.1215  156.3431 N.1     1  UNL1       -0.1908
@<TRIPOS>BOND
     1     9     8    1
     2     9     1    1
     3     1     2   ar
     4     2     3   ar
     5     3    19    1
     6    19    20   am
     7    20    21    2
     8    20    23    1
     9    23    24   ar
    10    24    25   ar
    11    25    26   ar
    12    26    30    1
    13    30    31    3
    14    26    27   ar
    15    27    28   ar
    16    28    29    1
    17     3     4   ar
    18     4     5   ar
    19     5     6   ar
    20     6     7    1
    21     9    10    1
    22    10    11    2
    23    11    12    1
    24    11    13    1
    25    13    14    1
    26    14    15    1
    27    15    16    1
    28    15     9    1
    29     6     1   ar
    30    28    23   ar
    31    19    22    1
    32    12    17    1
    33    12    18    1
@<TRIPOS>MOLECULE
*****
 31 33 0 0 0
SMALL
GASTEIGER

@<TRIPOS>ATOM
      1 C         141.5312  140.3794  167.3958 C.ar    1  UNL1        0.0555
      2 C         141.1407  141.1178  166.1499 C.ar    1  UNL1        0.0168
      3 C         141.8034  140.7898  164.8449 C.ar    1  UNL1        0.0505
      4 C         142.8566  139.7235  164.7857 C.ar    1  UNL1        0.0170
      5 C         143.2472  138.9850  166.0316 C.ar    1  UNL1        0.0307
      6 C         142.5844  139.3130  167.3366 C.ar    1  UNL1        0.1402
      7 F         142.9749  138.5746  168.5826 F       1  UNL1       -0.2044
      8 C         139.7910  139.8823  168.0617 C.3     1  UNL1        0.0638
      9 C         140.8684  140.7073  168.7009 C.3     1  UNL1        0.2513
     10 N         142.1759  141.4185  168.8868 N.2     1  UNL1       -0.0663
     11 C         142.4466  142.1710  170.1559 C.2     1  UNL1        0.3195
     12 N         143.7542  142.8822  170.3417 N.pl3   1  UNL1       -0.2480
     13 C         141.4097  142.2124  171.2390 C.3     1  UNL1        0.2611
     14 O         140.1022  141.5013  171.0531 O.3     1  UNL1       -0.3108
     15 C         139.8315  140.7487  169.7841 C.3     1  UNL1        0.3281
     16 F         138.5240  140.0375  169.5981 F       1  UNL1       -0.1989
     17 H         144.4347  142.8550  169.6309 H       1  UNL1        0.2882
     18 H         143.9319  143.3761  171.1746 H       1  UNL1        0.2882
     19 N         141.4129  141.5283  163.5990 N.am    1  UNL1       -0.2791
     20 C         141.9274  142.9164  163.3575 C.2     1  UNL1        0.2695
     21 O         142.8324  143.5661  164.3619 O.2     1  UNL1       -0.2681
     22 H         140.8189  141.1018  162.9397 H       1  UNL1        0.1552
     23 C         141.5369  143.6548  162.1116 C.ar    1  UNL1        0.1621
     24 N         142.1447  143.2760  160.7936 N.ar    1  UNL1       -0.2363
     25 C         141.7542  144.0145  159.5477 C.ar    1  UNL1        0.1094
     26 C         140.7560  145.1317  159.6198 C.ar    1  UNL1        0.0898
     27 C         140.1482  145.5106  160.9378 C.ar    1  UNL1        0.0432
     28 C         140.5386  144.7721  162.1837 C.ar    1  UNL1        0.1628
     29 F         139.9309  145.1510  163.5017 F       1  UNL1       -0.2024
     30 C         140.3655  145.8702  158.3740 C.1     1  UNL1        0.1021
     31 N         139.9750  146.6087  157.1281 N.1     1  UNL1       -0.1908
@<TRIPOS>BOND
     1     9     8    1
     2     9     1    1
     3     1     2   ar
     4     2     3   ar
     5     3    19    1
     6    19    20   am
     7    20    21    2
     8    20    23    1
     9    23    24   ar
    10    24    25   ar
    11    25    26   ar
    12    26    30    1
    13    30    31    3
    14    26    27   ar
    15    27    28   ar
    16    28    29    1
    17     3     4   ar
    18     4     5   ar
    19     5     6   ar
    20     6     7    1
    21     9    10    1
    22    10    11    2
    23    11    12    1
    24    11    13    1
    25    13    14    1
    26    14    15    1
    27    15    16    1
    28    15     9    1
    29     6     1   ar
    30    28    23   ar
    31    19    22    1
    32    12    17    1
    33    12    18    1
@<TRIPOS>MOLECULE
*****
 31 33 0 0 0
SMALL
GASTEIGER

@<TRIPOS>ATOM
      1 C         140.2958  140.1328  167.5485 C.ar    1  UNL1        0.0555
      2 C         140.9342  139.8688  166.2171 C.ar    1  UNL1        0.0168
      3 C         140.1970  139.0811  165.1749 C.ar    1  UNL1        0.0505
      4 C         138.8215  138.5575  165.4642 C.ar    1  UNL1        0.0170
      5 C         138.1831  138.8214  166.7956 C.ar    1  UNL1        0.0307
      6 C         138.9203  139.6091  167.8378 C.ar    1  UNL1        0.1402
      7 F         138.2819  139.8731  169.1693 F       1  UNL1       -0.2044
      8 C         140.2780  142.0261  167.9143 C.3     1  UNL1        0.0638
      9 C         141.0330  140.9204  168.5908 C.3     1  UNL1        0.2513
     10 N         141.5319  139.5413  168.9053 N.2     1  UNL1       -0.0663
     11 C         142.5058  139.3338  170.0271 C.2     1  UNL1        0.3195
     12 N         143.0048  137.9546  170.3416 N.pl3   1  UNL1       -0.2480
     13 C         142.9808  140.5055  170.8344 C.3     1  UNL1        0.2611
     14 O         142.4818  141.8846  170.5198 O.3     1  UNL1       -0.3108
     15 C         141.5079  142.0921  169.3980 C.3     1  UNL1        0.3281
     16 F         141.0089  143.4713  169.0834 F       1  UNL1       -0.1989
     17 H         142.6931  137.1856  169.8118 H       1  UNL1        0.2882
     18 H         143.6440  137.8184  171.0779 H       1  UNL1        0.2882
     19 N         140.8354  138.8171  163.8434 N.am    1  UNL1       -0.2791
     20 C         140.7068  139.8223  162.7375 C.2     1  UNL1        0.2695
     21 O         139.9397  141.0915  162.9631 O.2     1  UNL1       -0.2681
     22 H         141.3388  137.9841  163.6954 H       1  UNL1        0.1552
     23 C         141.3451  139.5583  161.4061 C.ar    1  UNL1        0.1621
     24 N         142.6429  140.2218  161.0518 N.ar    1  UNL1       -0.2363
     25 C         143.2812  139.9578  159.7202 C.ar    1  UNL1        0.1094
     26 C         142.6217  139.0303  158.7431 C.ar    1  UNL1        0.0898
     27 C         141.3240  138.3668  159.0974 C.ar    1  UNL1        0.0432
     28 C         140.6856  138.6308  160.4288 C.ar    1  UNL1        0.1628
     29 F         139.3879  137.9672  160.7832 F       1  UNL1       -0.2024
     30 C         143.2601  138.7663  157.4116 C.1     1  UNL1        0.1021
     31 N         143.8984  138.5023  156.0801 N.1     1  UNL1       -0.1908
@<TRIPOS>BOND
     1     9     8    1
     2     9     1    1
     3     1     2   ar
     4     2     3   ar
     5     3    19    1
     6    19    20   am
     7    20    21    2
     8    20    23    1
     9    23    24   ar
    10    24    25   ar
    11    25    26   ar
    12    26    30    1
    13    30    31    3
    14    26    27   ar
    15    27    28   ar
    16    28    29    1
    17     3     4   ar
    18     4     5   ar
    19     5     6   ar
    20     6     7    1
    21     9    10    1
    22    10    11    2
    23    11    12    1
    24    11    13    1
    25    13    14    1
    26    14    15    1
    27    15    16    1
    28    15     9    1
    29     6     1   ar
    30    28    23   ar
    31    19    22    1
    32    12    17    1
    33    12    18    1
@<TRIPOS>MOLECULE
*****
 31 33 0 0 0
SMALL
GASTEIGER

@<TRIPOS>ATOM
      1 C         142.1230  140.8708  167.6198 C.ar    1  UNL1        0.0555
      2 C         141.6909  141.6071  166.3865 C.ar    1  UNL1        0.0168
      3 C         141.7384  140.9258  165.0510 C.ar    1  UNL1        0.0505
      4 C         142.2179  139.5082  164.9489 C.ar    1  UNL1        0.0170
      5 C         142.6500  138.7719  166.1822 C.ar    1  UNL1        0.0307
      6 C         142.6026  139.4532  167.5176 C.ar    1  UNL1        0.1402
      7 F         143.0347  138.7169  168.7511 F       1  UNL1       -0.2044
      8 C         143.3990  142.0508  168.4554 C.3     1  UNL1        0.0638
      9 C         142.0756  141.5521  168.9553 C.3     1  UNL1        0.2513
     10 N         140.7687  140.8169  168.9915 N.2     1  UNL1       -0.0663
     11 C         139.8740  140.9361  170.1895 C.2     1  UNL1        0.3195
     12 N         138.5670  140.2008  170.2256 N.pl3   1  UNL1       -0.2480
     13 C         140.2862  141.7906  171.3514 C.3     1  UNL1        0.2611
     14 O         141.5931  142.5259  171.3152 O.3     1  UNL1       -0.3108
     15 C         142.4878  142.4066  170.1172 C.3     1  UNL1        0.3281
     16 F         143.7948  143.1419  170.0810 F       1  UNL1       -0.1989
     17 H         138.2965  139.6400  169.4630 H       1  UNL1        0.2882
     18 H         137.9797  140.2790  171.0119 H       1  UNL1        0.2882
     19 N         141.3063  141.6621  163.8176 N.am    1  UNL1       -0.2791
     20 C         142.1156  142.8199  163.3131 C.2     1  UNL1        0.2695
     21 O         143.3570  143.2414  164.0420 O.2     1  UNL1       -0.2681
     22 H         140.4915  141.3854  163.3392 H       1  UNL1        0.1552
     23 C         141.6835  143.5561  162.0797 C.ar    1  UNL1        0.1621
     24 N         142.0988  143.0605  160.7263 N.ar    1  UNL1       -0.2363
     25 C         141.6667  143.7968  159.4929 C.ar    1  UNL1        0.1094
     26 C         140.8194  145.0288  159.6130 C.ar    1  UNL1        0.0898
     27 C         140.4042  145.5244  160.9665 C.ar    1  UNL1        0.0432
     28 C         140.8362  144.7881  162.1998 C.ar    1  UNL1        0.1628
     29 F         140.4210  145.2838  163.5533 F       1  UNL1       -0.2024
     30 C         140.3874  145.7650  158.3797 C.1     1  UNL1        0.1021
     31 N         139.9553  146.5014  157.1463 N.1     1  UNL1       -0.1908
@<TRIPOS>BOND
     1     9     8    1
     2     9     1    1
     3     1     2   ar
     4     2     3   ar
     5     3    19    1
     6    19    20   am
     7    20    21    2
     8    20    23    1
     9    23    24   ar
    10    24    25   ar
    11    25    26   ar
    12    26    30    1
    13    30    31    3
    14    26    27   ar
    15    27    28   ar
    16    28    29    1
    17     3     4   ar
    18     4     5   ar
    19     5     6   ar
    20     6     7    1
    21     9    10    1
    22    10    11    2
    23    11    12    1
    24    11    13    1
    25    13    14    1
    26    14    15    1
    27    15    16    1
    28    15     9    1
    29     6     1   ar
    30    28    23   ar
    31    19    22    1
    32    12    17    1
    33    12    18    1
@<TRIPOS>MOLECULE
*****
 31 33 0 0 0
SMALL
GASTEIGER

@<TRIPOS>ATOM
      1 C         139.4603  146.3174  155.9941 C.ar    1  UNL1        0.0555
      2 C         140.3552  146.0925  157.1767 C.ar    1  UNL1        0.0168
      3 C         140.3806  144.7545  157.8542 C.ar    1  UNL1        0.0505
      4 C         139.5112  143.6414  157.3490 C.ar    1  UNL1        0.0170
      5 C         138.6164  143.8663  156.1664 C.ar    1  UNL1        0.0307
      6 C         138.5910  145.2043  155.4889 C.ar    1  UNL1        0.1402
      7 F         137.6961  145.4293  154.3062 F       1  UNL1       -0.2044
      8 C         140.0918  146.8343  154.2468 C.3     1  UNL1        0.0638
      9 C         139.4349  147.6555  155.3165 C.3     1  UNL1        0.2513
     10 N         138.7868  148.0120  156.6214 N.2     1  UNL1       -0.0663
     11 C         138.3414  149.4212  156.8774 C.2     1  UNL1        0.3195
     12 N         137.6934  149.7777  158.1824 N.pl3   1  UNL1       -0.2480
     13 C         138.5441  150.4741  155.8283 C.3     1  UNL1        0.2611
     14 O         139.1922  150.1176  154.5234 O.3     1  UNL1       -0.3108
     15 C         139.6375  148.7083  154.2674 C.3     1  UNL1        0.3281
     16 F         140.2856  148.3518  152.9625 F       1  UNL1       -0.1989
     17 H         137.5603  149.0867  158.8709 H       1  UNL1        0.2882
     18 H         137.4010  150.7026  158.3504 H       1  UNL1        0.2882
     19 N         141.2754  144.5296  159.0369 N.am    1  UNL1       -0.2791
     20 C         140.8516  144.9971  160.3977 C.2     1  UNL1        0.2695
     21 O         139.5329  145.6896  160.5758 O.2     1  UNL1       -0.2681
     22 H         142.1409  144.0751  158.9200 H       1  UNL1        0.1552
     23 C         141.7464  144.7722  161.5804 C.ar    1  UNL1        0.1621
     24 N         143.1422  144.2613  161.3784 N.ar    1  UNL1       -0.2363
     25 C         144.0370  144.0364  162.5612 C.ar    1  UNL1        0.1094
     26 C         143.5359  144.3223  163.9458 C.ar    1  UNL1        0.0898
     27 C         142.1401  144.8331  164.1477 C.ar    1  UNL1        0.0432
     28 C         141.2453  145.0581  162.9651 C.ar    1  UNL1        0.1628
     29 F         139.8495  145.5689  163.1670 F       1  UNL1       -0.2024
     30 C         144.4307  144.0974  165.1285 C.1     1  UNL1        0.1021
     31 N         145.3255  143.8725  166.3112 N.1     1  UNL1       -0.1908
@<TRIPOS>BOND
     1     9     8    1
     2     9     1    1
     3     1     2   ar
     4     2     3   ar
     5     3    19    1
     6    19    20   am
     7    20    21    2
     8    20    23    1
     9    23    24   ar
    10    24    25   ar
    11    25    26   ar
    12    26    30    1
    13    30    31    3
    14    26    27   ar
    15    27    28   ar
    16    28    29    1
    17     3     4   ar
    18     4     5   ar
    19     5     6   ar
    20     6     7    1
    21     9    10    1
    22    10    11    2
    23    11    12    1
    24    11    13    1
    25    13    14    1
    26    14    15    1
    27    15    16    1
    28    15     9    1
    29     6     1   ar
    30    28    23   ar
    31    19    22    1
    32    12    17    1
    33    12    18    1
@<TRIPOS>MOLECULE
*****
 31 33 0 0 0
SMALL
GASTEIGER

@<TRIPOS>ATOM
      1 C         140.3564  140.6450  166.7357 C.ar    1  UNL1        0.0555
      2 C         140.6586  141.2777  165.4097 C.ar    1  UNL1        0.0168
      3 C         139.6652  141.1831  164.2898 C.ar    1  UNL1        0.0505
      4 C         138.3696  140.4558  164.4959 C.ar    1  UNL1        0.0170
      5 C         138.0674  139.8231  165.8219 C.ar    1  UNL1        0.0307
      6 C         139.0608  139.9177  166.9418 C.ar    1  UNL1        0.1402
      7 F         138.7586  139.2849  168.2679 F       1  UNL1       -0.2044
      8 C         141.8123  139.4701  167.2037 C.3     1  UNL1        0.0638
      9 C         141.3498  140.7395  167.8556 C.3     1  UNL1        0.2513
     10 N         140.5425  141.9760  168.1186 N.2     1  UNL1       -0.0663
     11 C         140.8890  142.8662  169.2751 C.2     1  UNL1        0.3195
     12 N         140.0816  144.1027  169.5380 N.pl3   1  UNL1       -0.2480
     13 C         142.0430  142.5198  170.1686 C.3     1  UNL1        0.2611
     14 O         142.8504  141.2834  169.9056 O.3     1  UNL1       -0.3108
     15 C         142.5039  140.3932  168.7492 C.3     1  UNL1        0.3281
     16 F         143.3112  139.1566  168.4861 F       1  UNL1       -0.1989
     17 H         139.3242  144.3300  168.9515 H       1  UNL1        0.2882
     18 H         140.3090  144.6870  170.2970 H       1  UNL1        0.2882
     19 N         139.9674  141.8158  162.9637 N.am    1  UNL1       -0.2791
     20 C         139.3464  143.1325  162.6021 C.2     1  UNL1        0.2695
     21 O         138.4231  143.8163  163.5665 O.2     1  UNL1       -0.2681
     22 H         140.5733  141.3670  162.3308 H       1  UNL1        0.1552
     23 C         139.6485  143.7652  161.2761 C.ar    1  UNL1        0.1621
     24 N         139.3485  143.0253  160.0062 N.ar    1  UNL1       -0.2363
     25 C         139.6507  143.6581  158.6802 C.ar    1  UNL1        0.1094
     26 C         140.2528  145.0307  158.6240 C.ar    1  UNL1        0.0898
     27 C         140.5528  145.7707  159.8939 C.ar    1  UNL1        0.0432
     28 C         140.2506  145.1379  161.2199 C.ar    1  UNL1        0.1628
     29 F         140.5506  145.8779  162.4897 F       1  UNL1       -0.2024
     30 C         140.5549  145.6635  157.2980 C.1     1  UNL1        0.1021
     31 N         140.8571  146.2962  155.9719 N.1     1  UNL1       -0.1908
@<TRIPOS>BOND
     1     9     8    1
     2     9     1    1
     3     1     2   ar
     4     2     3   ar
     5     3    19    1
     6    19    20   am
     7    20    21    2
     8    20    23    1
     9    23    24   ar
    10    24    25   ar
    11    25    26   ar
    12    26    30    1
    13    30    31    3
    14    26    27   ar
    15    27    28   ar
    16    28    29    1
    17     3     4   ar
    18     4     5   ar
    19     5     6   ar
    20     6     7    1
    21     9    10    1
    22    10    11    2
    23    11    12    1
    24    11    13    1
    25    13    14    1
    26    14    15    1
    27    15    16    1
    28    15     9    1
    29     6     1   ar
    30    28    23   ar
    31    19    22    1
    32    12    17    1
    33    12    18    1
@<TRIPOS>MOLECULE
*****
 31 33 0 0 0
SMALL
GASTEIGER

@<TRIPOS>ATOM
      1 C         142.3803  140.3146  167.7448 C.ar    1  UNL1        0.0555
      2 C         142.3817  140.7017  166.2956 C.ar    1  UNL1        0.0168
      3 C         142.9453  139.7641  165.2695 C.ar    1  UNL1        0.0505
      4 C         143.5076  138.4393  165.6924 C.ar    1  UNL1        0.0170
      5 C         143.5062  138.0522  167.1416 C.ar    1  UNL1        0.0307
      6 C         142.9426  138.9899  168.1678 C.ar    1  UNL1        0.1402
      7 F         142.9412  138.6028  169.6170 F       1  UNL1       -0.2044
      8 C         143.1690  141.8692  168.5694 C.3     1  UNL1        0.0638
      9 C         141.8167  141.2523  168.7711 C.3     1  UNL1        0.2513
     10 N         140.6601  140.3098  168.6163 N.2     1  UNL1       -0.0663
     11 C         139.4095  140.5192  169.4177 C.2     1  UNL1        0.3195
     12 N         138.2529  139.5767  169.2629 N.pl3   1  UNL1       -0.2480
     13 C         139.3156  141.6711  170.3739 C.3     1  UNL1        0.2611
     14 O         140.4722  142.6136  170.5287 O.3     1  UNL1       -0.3108
     15 C         141.7227  142.4042  169.7273 C.3     1  UNL1        0.3281
     16 F         142.8794  143.3467  169.8820 F       1  UNL1       -0.1989
     17 H         138.3146  138.8206  168.6353 H       1  UNL1        0.2882
     18 H         137.4321  139.7141  169.7889 H       1  UNL1        0.2882
     19 N         142.9467  140.1511  163.8202 N.am    1  UNL1       -0.2791
     20 C         144.2278  140.5561  163.1533 C.2     1  UNL1        0.2695
     21 O         145.5076  140.5739  163.9357 O.2     1  UNL1       -0.2681
     22 H         142.1068  140.1394  163.3068 H       1  UNL1        0.1552
     23 C         144.2293  140.9431  161.7042 C.ar    1  UNL1        0.1621
     24 N         144.6288  142.3310  161.2989 N.ar    1  UNL1       -0.2363
     25 C         144.6303  142.7180  159.8497 C.ar    1  UNL1        0.1094
     26 C         144.2322  141.7172  158.8057 C.ar    1  UNL1        0.0898
     27 C         143.8326  140.3294  159.2110 C.ar    1  UNL1        0.0432
     28 C         143.8312  139.9423  160.6601 C.ar    1  UNL1        0.1628
     29 F         143.4317  138.5544  161.0654 F       1  UNL1       -0.2024
     30 C         144.2336  142.1043  157.3566 C.1     1  UNL1        0.1021
     31 N         144.2350  142.4914  155.9073 N.1     1  UNL1       -0.1908
@<TRIPOS>BOND
     1     9     8    1
     2     9     1    1
     3     1     2   ar
     4     2     3   ar
     5     3    19    1
     6    19    20   am
     7    20    21    2
     8    20    23    1
     9    23    24   ar
    10    24    25   ar
    11    25    26   ar
    12    26    30    1
    13    30    31    3
    14    26    27   ar
    15    27    28   ar
    16    28    29    1
    17     3     4   ar
    18     4     5   ar
    19     5     6   ar
    20     6     7    1
    21     9    10    1
    22    10    11    2
    23    11    12    1
    24    11    13    1
    25    13    14    1
    26    14    15    1
    27    15    16    1
    28    15     9    1
    29     6     1   ar
    30    28    23   ar
    31    19    22    1
    32    12    17    1
    33    12    18    1
@<TRIPOS>MOLECULE
*****
 31 33 0 0 0
SMALL
GASTEIGER

@<TRIPOS>ATOM
      1 C         142.2044  140.9295  166.9295 C.ar    1  UNL1        0.0555
      2 C         142.0076  141.8066  165.7287 C.ar    1  UNL1        0.0168
      3 C         142.5226  141.3706  164.3891 C.ar    1  UNL1        0.0505
      4 C         143.2343  140.0575  164.2503 C.ar    1  UNL1        0.0170
      5 C         143.4311  139.1804  165.4511 C.ar    1  UNL1        0.0307
      6 C         142.9162  139.6165  166.7907 C.ar    1  UNL1        0.1402
      7 F         143.1130  138.7394  167.9916 F       1  UNL1       -0.2044
      8 C         142.9648  142.1532  168.2115 C.3     1  UNL1        0.0638
      9 C         141.6895  141.3655  168.2693 C.3     1  UNL1        0.2513
     10 N         140.5931  140.4265  167.8618 N.2     1  UNL1       -0.0663
     11 C         139.4246  140.1970  168.7740 C.2     1  UNL1        0.3195
     12 N         138.3282  139.2579  168.3665 N.pl3   1  UNL1       -0.2480
     13 C         139.3526  140.9065  170.0936 C.3     1  UNL1        0.2611
     14 O         140.4490  141.8455  170.5011 O.3     1  UNL1       -0.3108
     15 C         141.6175  142.0751  169.5889 C.3     1  UNL1        0.3281
     16 F         142.7139  143.0141  169.9963 F       1  UNL1       -0.1989
     17 H         138.3755  138.7922  167.5004 H       1  UNL1        0.2882
     18 H         137.5613  139.1072  168.9651 H       1  UNL1        0.2882
     19 N         142.3258  142.2476  163.1882 N.am    1  UNL1       -0.2791
     20 C         141.0115  142.2456  162.4653 C.2     1  UNL1        0.2695
     21 O         139.8939  141.3665  162.9433 O.2     1  UNL1       -0.2681
     22 H         143.0592  142.8246  162.8745 H       1  UNL1        0.1552
     23 C         140.8146  143.1226  161.2644 C.ar    1  UNL1        0.1621
     24 N         140.5568  144.5896  161.4413 N.ar    1  UNL1       -0.2363
     25 C         140.3600  145.4667  160.2403 C.ar    1  UNL1        0.1094
     26 C         140.4209  144.8766  158.8627 C.ar    1  UNL1        0.0898
     27 C         140.6787  143.4095  158.6858 C.ar    1  UNL1        0.0432
     28 C         140.8755  142.5325  159.8867 C.ar    1  UNL1        0.1628
     29 F         141.1333  141.0655  159.7098 F       1  UNL1       -0.2024
     30 C         140.2241  145.7536  157.6618 C.1     1  UNL1        0.1021
     31 N         140.0273  146.6306  156.4609 N.1     1  UNL1       -0.1908
@<TRIPOS>BOND
     1     9     8    1
     2     9     1    1
     3     1     2   ar
     4     2     3   ar
     5     3    19    1
     6    19    20   am
     7    20    21    2
     8    20    23    1
     9    23    24   ar
    10    24    25   ar
    11    25    26   ar
    12    26    30    1
    13    30    31    3
    14    26    27   ar
    15    27    28   ar
    16    28    29    1
    17     3     4   ar
    18     4     5   ar
    19     5     6   ar
    20     6     7    1
    21     9    10    1
    22    10    11    2
    23    11    12    1
    24    11    13    1
    25    13    14    1
    26    14    15    1
    27    15    16    1
    28    15     9    1
    29     6     1   ar
    30    28    23   ar
    31    19    22    1
    32    12    17    1
    33    12    18    1
@<TRIPOS>MOLECULE
*****
 31 33 0 0 0
SMALL
GASTEIGER

@<TRIPOS>ATOM
      1 C         139.8049  139.1553  164.8040 C.ar    1  UNL1        0.0555
      2 C         140.1108  140.1376  163.7125 C.ar    1  UNL1        0.0168
      3 C         139.6794  139.8527  162.3045 C.ar    1  UNL1        0.0505
      4 C         138.9421  138.5853  161.9879 C.ar    1  UNL1        0.0170
      5 C         138.6361  137.6030  163.0793 C.ar    1  UNL1        0.0307
      6 C         139.0676  137.8880  164.4874 C.ar    1  UNL1        0.1402
      7 F         138.7616  136.9056  165.5789 F       1  UNL1       -0.2044
      8 C         138.7837  139.8022  166.3064 C.3     1  UNL1        0.0638
      9 C         140.2363  139.4402  166.2121 C.3     1  UNL1        0.2513
     10 N         141.5391  138.9792  165.6288 N.2     1  UNL1       -0.0663
     11 C         142.7688  138.9289  166.4863 C.2     1  UNL1        0.3195
     12 N         144.0716  138.4679  165.9029 N.pl3   1  UNL1       -0.2480
     13 C         142.6956  139.3396  167.9272 C.3     1  UNL1        0.2611
     14 O         141.3929  139.8005  168.5105 O.3     1  UNL1       -0.3108
     15 C         140.1632  139.8509  167.6530 C.3     1  UNL1        0.3281
     16 F         138.8604  140.3118  168.2362 F       1  UNL1       -0.1989
     17 H         144.1195  138.1984  164.9572 H       1  UNL1        0.2882
     18 H         144.8787  138.4349  166.4657 H       1  UNL1        0.2882
     19 N         139.9854  140.8350  161.2129 N.am    1  UNL1       -0.2791
     20 C         139.0068  141.9247  160.8886 C.2     1  UNL1        0.2695
     21 O         137.7223  142.0319  161.6559 O.2     1  UNL1       -0.2681
     22 H         140.8284  140.7646  160.7093 H       1  UNL1        0.1552
     23 C         139.3127  142.9070  159.7972 C.ar    1  UNL1        0.1621
     24 N         138.9261  142.5990  158.3809 N.ar    1  UNL1       -0.2363
     25 C         139.2320  143.5815  157.2894 C.ar    1  UNL1        0.1094
     26 C         139.9244  144.8718  157.6142 C.ar    1  UNL1        0.0898
     27 C         140.3110  145.1798  159.0304 C.ar    1  UNL1        0.0432
     28 C         140.0052  144.1974  160.1219 C.ar    1  UNL1        0.1628
     29 F         140.3917  144.5054  161.5381 F       1  UNL1       -0.2024
     30 C         140.2303  145.8541  156.5227 C.1     1  UNL1        0.1021
     31 N         140.5362  146.8365  155.4311 N.1     1  UNL1       -0.1908
@<TRIPOS>BOND
     1     9     8    1
     2     9     1    1
     3     1     2   ar
     4     2     3   ar
     5     3    19    1
     6    19    20   am
     7    20    21    2
     8    20    23    1
     9    23    24   ar
    10    24    25   ar
    11    25    26   ar
    12    26    30    1
    13    30    31    3
    14    26    27   ar
    15    27    28   ar
    16    28    29    1
    17     3     4   ar
    18     4     5   ar
    19     5     6   ar
    20     6     7    1
    21     9    10    1
    22    10    11    2
    23    11    12    1
    24    11    13    1
    25    13    14    1
    26    14    15    1
    27    15    16    1
    28    15     9    1
    29     6     1   ar
    30    28    23   ar
    31    19    22    1
    32    12    17    1
    33    12    18    1
