@<TRIPOS>MOLECULE
*****
 28 30 0 0 0
SMALL
GASTEIGER

@<TRIPOS>ATOM
      1 C         139.2327  141.0699  162.6233 C.ar    1  UNL1        0.1030
      2 C         138.2997  140.0301  162.0773 C.ar    1  UNL1        0.0414
      3 C         138.1560  138.7105  162.7757 C.ar    1  UNL1        0.1034
      4 N         138.9454  138.4307  164.0201 N.ar    1  UNL1       -0.2120
      5 C         139.8784  139.4705  164.5661 C.ar    1  UNL1        0.2207
      6 N         140.0221  140.7901  163.8677 N.ar    1  UNL1       -0.2120
      7 C         139.5993  146.2592  161.7184 C.3     1  UNL1        0.0718
      8 C         139.5449  144.7748  161.5089 C.ar    1  UNL1        0.1208
      9 N         139.6502  144.0660  160.1911 N.ar    1  UNL1       -0.2293
     10 C         139.5461  142.5918  160.4482 C.ar    1  UNL1        0.1188
     11 C         139.3764  142.3897  161.9248 C.ar    1  UNL1        0.0981
     12 N         139.3757  143.7388  162.5803 N.ar    1  UNL1       -0.3155
     13 C         139.2312  144.0053  164.0494 C.3     1  UNL1        0.0868
     14 C         137.8661  144.1345  164.6575 C.3     1  UNL1        0.0245
     15 C         140.4518  144.1424  164.9104 C.3     1  UNL1        0.0245
     16 N         140.6678  139.1907  165.8106 N.pl3   1  UNL1       -0.2825
     17 H         141.2587  138.4044  165.8523 H       1  UNL1        0.1551
     18 C         140.5568  140.1090  166.9914 C.ar    1  UNL1        0.0505
     19 C         139.5450  139.8328  168.0639 C.ar    1  UNL1        0.0148
     20 C         139.4341  140.7511  169.2447 C.ar    1  UNL1        0.0058
     21 C         140.3349  141.9455  169.3532 C.ar    1  UNL1        0.0532
     22 C         141.3467  142.2217  168.2809 C.ar    1  UNL1        0.0058
     23 C         141.4577  141.3034  167.0999 C.ar    1  UNL1        0.0148
     24 C         140.2240  142.8638  170.5341 C.2     1  UNL1        0.2427
     25 N         139.9868  144.3300  170.3244 N.am    1  UNL1       -0.3253
     26 O         140.3502  142.3158  171.9247 O.2     1  UNL1       -0.2704
     27 H         139.9039  144.6896  169.4117 H       1  UNL1        0.1453
     28 H         139.9140  144.9326  171.0995 H       1  UNL1        0.1453
@<TRIPOS>BOND
     1     7     8    1
     2     8     9   ar
     3     9    10   ar
     4    10    11   ar
     5    11     1    1
     6     1     2   ar
     7     2     3   ar
     8     3     4   ar
     9     4     5   ar
    10     5    16    1
    11    16    18    1
    12    18    19   ar
    13    19    20   ar
    14    20    21   ar
    15    21    24    1
    16    24    25   am
    17    24    26    2
    18    21    22   ar
    19    22    23   ar
    20     5     6   ar
    21    11    12   ar
    22    12    13    1
    23    13    14    1
    24    13    15    1
    25    12     8   ar
    26     6     1   ar
    27    23    18   ar
    28    16    17    1
    29    25    27    1
    30    25    28    1
@<TRIPOS>MOLECULE
*****
 28 30 0 0 0
SMALL
GASTEIGER

@<TRIPOS>ATOM
      1 C         138.7410  140.4691  163.5327 C.ar    1  UNL1        0.1030
      2 C         138.8901  139.1948  162.7556 C.ar    1  UNL1        0.0414
      3 C         138.9009  137.8767  163.4714 C.ar    1  UNL1        0.1034
      4 N         138.7626  137.8329  164.9644 N.ar    1  UNL1       -0.2120
      5 C         138.6135  139.1072  165.7415 C.ar    1  UNL1        0.2207
      6 N         138.6027  140.4252  165.0257 N.ar    1  UNL1       -0.2120
      7 C         139.6767  145.5137  162.2847 C.3     1  UNL1        0.0718
      8 C         139.1603  144.1060  162.2433 C.ar    1  UNL1        0.1208
      9 N         138.2668  143.5254  161.1875 N.ar    1  UNL1       -0.2293
     10 C         138.0010  142.0923  161.5421 C.ar    1  UNL1        0.1188
     11 C         138.7302  141.7873  162.8169 C.ar    1  UNL1        0.0981
     12 N         139.4467  143.0318  163.2503 N.ar    1  UNL1       -0.3155
     13 C         140.2998  143.1767  164.4755 C.3     1  UNL1        0.0868
     14 C         141.7490  142.7928  164.4301 C.3     1  UNL1        0.0245
     15 C         139.7034  143.7057  165.7463 C.3     1  UNL1        0.0245
     16 N         138.4752  139.0633  167.2345 N.pl3   1  UNL1       -0.2825
     17 H         137.7585  138.5291  167.6470 H       1  UNL1        0.1551
     18 C         139.4290  139.8333  168.0990 C.ar    1  UNL1        0.0505
     19 C         140.7964  140.1763  167.5863 C.ar    1  UNL1        0.0148
     20 C         141.7501  140.9463  168.4508 C.ar    1  UNL1        0.0058
     21 C         141.3366  141.3734  169.8279 C.ar    1  UNL1        0.0532
     22 C         139.9693  141.0305  170.3406 C.ar    1  UNL1        0.0058
     23 C         139.0155  140.2604  169.4761 C.ar    1  UNL1        0.0148
     24 C         142.2905  142.1434  170.6924 C.2     1  UNL1        0.2427
     25 N         143.5694  142.6710  170.1128 N.am    1  UNL1       -0.3253
     26 O         141.9653  142.3859  172.1366 O.2     1  UNL1       -0.2704
     27 H         143.7828  142.5119  169.1650 H       1  UNL1        0.1453
     28 H         144.1954  143.1764  170.6802 H       1  UNL1        0.1453
@<TRIPOS>BOND
     1     7     8    1
     2     8     9   ar
     3     9    10   ar
     4    10    11   ar
     5    11     1    1
     6     1     2   ar
     7     2     3   ar
     8     3     4   ar
     9     4     5   ar
    10     5    16    1
    11    16    18    1
    12    18    19   ar
    13    19    20   ar
    14    20    21   ar
    15    21    24    1
    16    24    25   am
    17    24    26    2
    18    21    22   ar
    19    22    23   ar
    20     5     6   ar
    21    11    12   ar
    22    12    13    1
    23    13    14    1
    24    13    15    1
    25    12     8   ar
    26     6     1   ar
    27    23    18   ar
    28    16    17    1
    29    25    27    1
    30    25    28    1
@<TRIPOS>MOLECULE
*****
 28 30 0 0 0
SMALL
GASTEIGER

@<TRIPOS>ATOM
      1 C         140.4318  141.2072  162.9269 C.ar    1  UNL1        0.1030
      2 C         140.6951  140.2481  161.8041 C.ar    1  UNL1        0.0414
      3 C         141.3511  138.9284  162.0834 C.ar    1  UNL1        0.1034
      4 N         141.7440  138.5679  163.4854 N.ar    1  UNL1       -0.2120
      5 C         141.4807  139.5270  164.6082 C.ar    1  UNL1        0.2207
      6 N         140.8246  140.8467  164.3290 N.ar    1  UNL1       -0.2120
      7 C         139.7026  146.3236  161.8442 C.3     1  UNL1        0.0718
      8 C         139.4405  144.8786  162.1500 C.ar    1  UNL1        0.1208
      9 N         138.0915  144.2368  162.2861 N.ar    1  UNL1       -0.2293
     10 C         138.2987  142.7834  162.5936 C.ar    1  UNL1        0.1188
     11 C         139.7757  142.5269  162.6477 C.ar    1  UNL1        0.0981
     12 N         140.4813  143.8219  162.3735 N.ar    1  UNL1       -0.3155
     13 C         141.9669  144.0246  162.3304 C.3     1  UNL1        0.0868
     14 C         142.7534  143.5580  161.1415 C.3     1  UNL1        0.0245
     15 C         142.6661  144.6938  163.4765 C.3     1  UNL1        0.0245
     16 N         141.8735  139.1665  166.0102 N.pl3   1  UNL1       -0.2825
     17 H         142.3679  138.3330  166.1841 H       1  UNL1        0.1551
     18 C         141.5131  140.0758  167.1474 C.ar    1  UNL1        0.0505
     19 C         140.1673  139.9631  167.8003 C.ar    1  UNL1        0.0148
     20 C         139.8069  140.8724  168.9375 C.ar    1  UNL1        0.0058
     21 C         140.7923  141.8944  169.4219 C.ar    1  UNL1        0.0532
     22 C         142.1380  142.0071  168.7691 C.ar    1  UNL1        0.0058
     23 C         142.4985  141.0978  167.6318 C.ar    1  UNL1        0.0148
     24 C         140.4318  142.8037  170.5591 C.2     1  UNL1        0.2427
     25 N         140.0758  144.2359  170.2905 N.am    1  UNL1       -0.3253
     26 O         140.4274  142.2809  171.9651 O.2     1  UNL1       -0.2704
     27 H         140.0788  144.5790  169.3677 H       1  UNL1        0.1453
     28 H         139.8393  144.8327  171.0369 H       1  UNL1        0.1453
@<TRIPOS>BOND
     1     7     8    1
     2     8     9   ar
     3     9    10   ar
     4    10    11   ar
     5    11     1    1
     6     1     2   ar
     7     2     3   ar
     8     3     4   ar
     9     4     5   ar
    10     5    16    1
    11    16    18    1
    12    18    19   ar
    13    19    20   ar
    14    20    21   ar
    15    21    24    1
    16    24    25   am
    17    24    26    2
    18    21    22   ar
    19    22    23   ar
    20     5     6   ar
    21    11    12   ar
    22    12    13    1
    23    13    14    1
    24    13    15    1
    25    12     8   ar
    26     6     1   ar
    27    23    18   ar
    28    16    17    1
    29    25    27    1
    30    25    28    1
@<TRIPOS>MOLECULE
*****
 28 30 0 0 0
SMALL
GASTEIGER

@<TRIPOS>ATOM
      1 C         143.3107  141.8621  162.6237 C.ar    1  UNL1        0.1030
      2 C         144.7872  142.1015  162.7353 C.ar    1  UNL1        0.0414
      3 C         145.6123  141.2732  163.6750 C.ar    1  UNL1        0.1034
      4 N         144.9609  140.2055  164.5031 N.ar    1  UNL1       -0.2120
      5 C         143.4843  139.9661  164.3915 C.ar    1  UNL1        0.2207
      6 N         142.6592  140.7944  163.4518 N.ar    1  UNL1       -0.2120
      7 C         140.2603  145.7061  160.6744 C.3     1  UNL1        0.0718
      8 C         141.0834  144.4573  160.7879 C.ar    1  UNL1        0.1208
      9 N         141.3480  143.4726  159.6877 N.ar    1  UNL1       -0.2293
     10 C         142.2145  142.3806  160.2415 C.ar    1  UNL1        0.1188
     11 C         142.4855  142.6904  161.6839 C.ar    1  UNL1        0.0981
     12 N         141.7864  143.9738  162.0216 N.ar    1  UNL1       -0.3155
     13 C         141.7897  144.6544  163.3584 C.3     1  UNL1        0.0868
     14 C         143.0315  145.3379  163.8490 C.3     1  UNL1        0.0245
     15 C         140.5511  144.6514  164.2045 C.3     1  UNL1        0.0245
     16 N         142.8329  138.8985  165.2196 N.pl3   1  UNL1       -0.2825
     17 H         142.8900  137.9559  164.9409 H       1  UNL1        0.1551
     18 C         142.0945  139.2668  166.4721 C.ar    1  UNL1        0.0505
     19 C         140.6576  139.6914  166.3984 C.ar    1  UNL1        0.0148
     20 C         139.9192  140.0597  167.6510 C.ar    1  UNL1        0.0058
     21 C         140.6175  140.0035  168.9773 C.ar    1  UNL1        0.0532
     22 C         142.0542  139.5790  169.0511 C.ar    1  UNL1        0.0058
     23 C         142.7928  139.2106  167.7985 C.ar    1  UNL1        0.0148
     24 C         139.8790  140.3719  170.2299 C.2     1  UNL1        0.2427
     25 N         139.8436  139.4187  171.3875 N.am    1  UNL1       -0.3253
     26 O         139.1759  141.6935  170.3248 O.2     1  UNL1       -0.2704
     27 H         140.3051  138.5513  171.3252 H       1  UNL1        0.1453
     28 H         139.3589  139.6605  172.2096 H       1  UNL1        0.1453
@<TRIPOS>BOND
     1     7     8    1
     2     8     9   ar
     3     9    10   ar
     4    10    11   ar
     5    11     1    1
     6     1     2   ar
     7     2     3   ar
     8     3     4   ar
     9     4     5   ar
    10     5    16    1
    11    16    18    1
    12    18    19   ar
    13    19    20   ar
    14    20    21   ar
    15    21    24    1
    16    24    25   am
    17    24    26    2
    18    21    22   ar
    19    22    23   ar
    20     5     6   ar
    21    11    12   ar
    22    12    13    1
    23    13    14    1
    24    13    15    1
    25    12     8   ar
    26     6     1   ar
    27    23    18   ar
    28    16    17    1
    29    25    27    1
    30    25    28    1
@<TRIPOS>MOLECULE
*****
 28 30 0 0 0
SMALL
GASTEIGER

@<TRIPOS>ATOM
      1 C         141.2540  141.1838  162.7050 C.ar    1  UNL1        0.1030
      2 C         140.8476  140.0684  161.7881 C.ar    1  UNL1        0.0414
      3 C         140.8393  138.6535  162.2860 C.ar    1  UNL1        0.1034
      4 N         141.2372  138.3540  163.7009 N.ar    1  UNL1       -0.2120
      5 C         141.6436  139.4693  164.6178 C.ar    1  UNL1        0.2207
      6 N         141.6519  140.8842  164.1199 N.ar    1  UNL1       -0.2120
      7 C         139.9216  146.2270  161.8853 C.3     1  UNL1        0.0718
      8 C         140.6500  144.9168  161.8303 C.ar    1  UNL1        0.1208
      9 N         141.9007  144.6353  161.0514 N.ar    1  UNL1       -0.2293
     10 C         142.2791  143.2027  161.2843 C.ar    1  UNL1        0.1188
     11 C         141.2624  142.5987  162.2071 C.ar    1  UNL1        0.0981
     12 N         140.2555  143.6581  162.5445 N.ar    1  UNL1       -0.3155
     13 C         139.0635  143.4887  163.4391 C.3     1  UNL1        0.0868
     14 C         139.2063  143.6691  164.9213 C.3     1  UNL1        0.0245
     15 C         137.7284  143.1388  162.8514 C.3     1  UNL1        0.0245
     16 N         142.0416  139.1698  166.0327 N.pl3   1  UNL1       -0.2825
     17 H         142.5688  138.3635  166.2356 H       1  UNL1        0.1551
     18 C         141.6363  140.0988  167.1385 C.ar    1  UNL1        0.0505
     19 C         142.5944  141.1432  167.6296 C.ar    1  UNL1        0.0148
     20 C         142.1892  142.0722  168.7354 C.ar    1  UNL1        0.0058
     21 C         140.8258  141.9567  169.3501 C.ar    1  UNL1        0.0532
     22 C         139.8677  140.9123  168.8590 C.ar    1  UNL1        0.0058
     23 C         140.2729  139.9833  167.7532 C.ar    1  UNL1        0.0148
     24 C         140.4205  142.8857  170.4559 C.2     1  UNL1        0.2427
     25 N         140.1200  144.3241  170.1548 N.am    1  UNL1       -0.3253
     26 O         140.3159  142.3763  171.8629 O.2     1  UNL1       -0.2704
     27 H         140.1887  144.6584  169.2313 H       1  UNL1        0.1453
     28 H         139.8540  144.9338  170.8805 H       1  UNL1        0.1453
@<TRIPOS>BOND
     1     7     8    1
     2     8     9   ar
     3     9    10   ar
     4    10    11   ar
     5    11     1    1
     6     1     2   ar
     7     2     3   ar
     8     3     4   ar
     9     4     5   ar
    10     5    16    1
    11    16    18    1
    12    18    19   ar
    13    19    20   ar
    14    20    21   ar
    15    21    24    1
    16    24    25   am
    17    24    26    2
    18    21    22   ar
    19    22    23   ar
    20     5     6   ar
    21    11    12   ar
    22    12    13    1
    23    13    14    1
    24    13    15    1
    25    12     8   ar
    26     6     1   ar
    27    23    18   ar
    28    16    17    1
    29    25    27    1
    30    25    28    1
@<TRIPOS>MOLECULE
*****
 28 30 0 0 0
SMALL
GASTEIGER

@<TRIPOS>ATOM
      1 C         140.6561  140.9817  163.2188 C.ar    1  UNL1        0.1030
      2 C         140.7098  139.9065  162.1743 C.ar    1  UNL1        0.0414
      3 C         140.1084  138.5607  162.4518 C.ar    1  UNL1        0.1034
      4 N         139.4532  138.2902  163.7738 N.ar    1  UNL1       -0.2120
      5 C         139.3995  139.3654  164.8183 C.ar    1  UNL1        0.2207
      6 N         140.0010  140.7112  164.5407 N.ar    1  UNL1       -0.2120
      7 C         143.8717  145.1681  163.3460 C.3     1  UNL1        0.0718
      8 C         142.7356  144.2518  162.9998 C.ar    1  UNL1        0.1208
      9 N         141.6306  144.5454  162.0287 N.ar    1  UNL1       -0.2293
     10 C         140.7172  143.3562  161.9926 C.ar    1  UNL1        0.1188
     11 C         141.2576  142.3276  162.9413 C.ar    1  UNL1        0.0981
     12 N         142.5051  142.8811  163.5637 N.ar    1  UNL1       -0.3155
     13 C         143.3701  142.1861  164.5730 C.3     1  UNL1        0.0868
     14 C         144.4862  141.2939  164.1167 C.3     1  UNL1        0.0245
     15 C         143.1189  142.3832  166.0387 C.3     1  UNL1        0.0245
     16 N         138.7444  139.0949  166.1402 N.pl3   1  UNL1       -0.2825
     17 H         137.8964  138.5960  166.1764 H       1  UNL1        0.1551
     18 C         139.3812  139.5844  167.4070 C.ar    1  UNL1        0.0505
     19 C         138.5349  139.8571  168.6151 C.ar    1  UNL1        0.0148
     20 C         139.1717  140.3467  169.8819 C.ar    1  UNL1        0.0058
     21 C         140.6548  140.5636  169.9407 C.ar    1  UNL1        0.0532
     22 C         141.5010  140.2909  168.7326 C.ar    1  UNL1        0.0058
     23 C         140.8643  139.8013  167.4657 C.ar    1  UNL1        0.0148
     24 C         141.2915  141.0532  171.2075 C.2     1  UNL1        0.2427
     25 N         142.6259  140.5159  171.6325 N.am    1  UNL1       -0.3253
     26 O         140.5939  142.0801  172.0494 O.2     1  UNL1       -0.2704
     27 H         143.0838  139.8419  171.0800 H       1  UNL1        0.1453
     28 H         143.0439  140.8372  172.4640 H       1  UNL1        0.1453
@<TRIPOS>BOND
     1     7     8    1
     2     8     9   ar
     3     9    10   ar
     4    10    11   ar
     5    11     1    1
     6     1     2   ar
     7     2     3   ar
     8     3     4   ar
     9     4     5   ar
    10     5    16    1
    11    16    18    1
    12    18    19   ar
    13    19    20   ar
    14    20    21   ar
    15    21    24    1
    16    24    25   am
    17    24    26    2
    18    21    22   ar
    19    22    23   ar
    20     5     6   ar
    21    11    12   ar
    22    12    13    1
    23    13    14    1
    24    13    15    1
    25    12     8   ar
    26     6     1   ar
    27    23    18   ar
    28    16    17    1
    29    25    27    1
    30    25    28    1
@<TRIPOS>MOLECULE
*****
 28 30 0 0 0
SMALL
GASTEIGER

@<TRIPOS>ATOM
      1 C         142.1682  140.2750  162.0813 C.ar    1  UNL1        0.1030
      2 C         142.8596  139.1996  161.2968 C.ar    1  UNL1        0.0414
      3 C         142.3950  137.7773  161.4031 C.ar    1  UNL1        0.1034
      4 N         141.2390  137.4305  162.2938 N.ar    1  UNL1       -0.2120
      5 C         140.5476  138.5059  163.0783 C.ar    1  UNL1        0.2207
      6 N         141.0122  139.9281  162.9721 N.ar    1  UNL1       -0.2120
      7 C         143.6769  145.1732  163.3509 C.3     1  UNL1        0.0718
      8 C         143.3263  143.9487  162.5587 C.ar    1  UNL1        0.1208
      9 N         143.3691  143.8232  161.0645 N.ar    1  UNL1       -0.2293
     10 C         142.9405  142.4317  160.7039 C.ar    1  UNL1        0.1188
     11 C         142.6328  141.6973  161.9751 C.ar    1  UNL1        0.0981
     12 N         142.8712  142.6349  163.1214 N.ar    1  UNL1       -0.3155
     13 C         142.6869  142.3149  164.5752 C.3     1  UNL1        0.0868
     14 C         141.5124  142.8727  165.3230 C.3     1  UNL1        0.0245
     15 C         143.6773  141.4369  165.2813 C.3     1  UNL1        0.0245
     16 N         139.3916  138.1590  163.9691 N.pl3   1  UNL1       -0.2825
     17 H         138.6725  137.5744  163.6370 H       1  UNL1        0.1551
     18 C         139.3314  138.7029  165.3657 C.ar    1  UNL1        0.0505
     19 C         138.0708  138.5715  166.1680 C.ar    1  UNL1        0.0148
     20 C         138.0106  139.1154  167.5646 C.ar    1  UNL1        0.0058
     21 C         139.2109  139.7907  168.1589 C.ar    1  UNL1        0.0532
     22 C         140.4714  139.9221  167.3567 C.ar    1  UNL1        0.0058
     23 C         140.5317  139.3782  165.9600 C.ar    1  UNL1        0.0148
     24 C         139.1506  140.3346  169.5556 C.2     1  UNL1        0.2427
     25 N         140.1708  141.3329  170.0164 N.am    1  UNL1       -0.3253
     26 O         138.0700  139.8801  170.4914 O.2     1  UNL1       -0.2704
     27 H         140.8801  141.6312  169.4022 H       1  UNL1        0.1453
     28 H         140.1313  141.6899  170.9330 H       1  UNL1        0.1453
@<TRIPOS>BOND
     1     7     8    1
     2     8     9   ar
     3     9    10   ar
     4    10    11   ar
     5    11     1    1
     6     1     2   ar
     7     2     3   ar
     8     3     4   ar
     9     4     5   ar
    10     5    16    1
    11    16    18    1
    12    18    19   ar
    13    19    20   ar
    14    20    21   ar
    15    21    24    1
    16    24    25   am
    17    24    26    2
    18    21    22   ar
    19    22    23   ar
    20     5     6   ar
    21    11    12   ar
    22    12    13    1
    23    13    14    1
    24    13    15    1
    25    12     8   ar
    26     6     1   ar
    27    23    18   ar
    28    16    17    1
    29    25    27    1
    30    25    28    1
@<TRIPOS>MOLECULE
*****
 28 30 0 0 0
SMALL
GASTEIGER

@<TRIPOS>ATOM
      1 C         142.1833  143.7393  162.9521 C.ar    1  UNL1        0.1030
      2 C         143.3916  144.4699  163.4582 C.ar    1  UNL1        0.0414
      3 C         144.2120  143.8835  164.5686 C.ar    1  UNL1        0.1034
      4 N         143.8242  142.5665  165.1728 N.ar    1  UNL1       -0.2120
      5 C         142.6159  141.8359  164.6667 C.ar    1  UNL1        0.2207
      6 N         141.7954  142.4224  163.5563 N.ar    1  UNL1       -0.2120
      7 C         140.0569  144.6067  158.1973 C.3     1  UNL1        0.0718
      8 C         140.3854  144.7244  159.6562 C.ar    1  UNL1        0.1208
      9 N         139.8148  145.7319  160.6099 N.ar    1  UNL1       -0.2293
     10 C         140.4188  145.4855  161.9606 C.ar    1  UNL1        0.1188
     11 C         141.3627  144.3258  161.8417 C.ar    1  UNL1        0.0981
     12 N         141.3420  143.8554  160.4175 N.ar    1  UNL1       -0.3155
     13 C         142.1382  142.7161  159.8536 C.3     1  UNL1        0.0868
     14 C         141.5814  141.3236  159.8856 C.3     1  UNL1        0.0245
     15 C         143.4913  142.9692  159.2576 C.3     1  UNL1        0.0245
     16 N         142.2280  140.5190  165.2709 N.pl3   1  UNL1       -0.2825
     17 H         142.2654  139.6983  164.7283 H       1  UNL1        0.1551
     18 C         141.7831  140.4523  166.7019 C.ar    1  UNL1        0.0505
     19 C         142.6271  139.7404  167.7173 C.ar    1  UNL1        0.0148
     20 C         142.1822  139.6737  169.1482 C.ar    1  UNL1        0.0058
     21 C         140.8934  140.3189  169.5638 C.ar    1  UNL1        0.0532
     22 C         140.0495  141.0308  168.5485 C.ar    1  UNL1        0.0058
     23 C         140.4943  141.0975  167.1175 C.ar    1  UNL1        0.0148
     24 C         140.4486  140.2522  170.9948 C.2     1  UNL1        0.2427
     25 N         139.6846  139.0592  171.4879 N.am    1  UNL1       -0.3253
     26 O         140.7677  141.3785  171.9327 O.2     1  UNL1       -0.2704
     27 H         139.4752  138.3200  170.8723 H       1  UNL1        0.1453
     28 H         139.3927  139.0154  172.4271 H       1  UNL1        0.1453
@<TRIPOS>BOND
     1     7     8    1
     2     8     9   ar
     3     9    10   ar
     4    10    11   ar
     5    11     1    1
     6     1     2   ar
     7     2     3   ar
     8     3     4   ar
     9     4     5   ar
    10     5    16    1
    11    16    18    1
    12    18    19   ar
    13    19    20   ar
    14    20    21   ar
    15    21    24    1
    16    24    25   am
    17    24    26    2
    18    21    22   ar
    19    22    23   ar
    20     5     6   ar
    21    11    12   ar
    22    12    13    1
    23    13    14    1
    24    13    15    1
    25    12     8   ar
    26     6     1   ar
    27    23    18   ar
    28    16    17    1
    29    25    27    1
    30    25    28    1
@<TRIPOS>MOLECULE
*****
 28 30 0 0 0
SMALL
GASTEIGER

@<TRIPOS>ATOM
      1 C         142.2748  140.7438  163.5625 C.ar    1  UNL1        0.1030
      2 C         143.3508  139.9676  162.8628 C.ar    1  UNL1        0.0414
      3 C         144.1837  138.9828  163.6285 C.ar    1  UNL1        0.1034
      4 N         143.9406  138.7741  165.0938 N.ar    1  UNL1       -0.2120
      5 C         142.8645  139.5503  165.7936 C.ar    1  UNL1        0.2207
      6 N         142.0316  140.5351  165.0279 N.ar    1  UNL1       -0.2120
      7 C         140.6532  145.1672  161.1782 C.3     1  UNL1        0.0718
      8 C         140.6965  143.7619  161.7009 C.ar    1  UNL1        0.1208
      9 N         139.6235  142.7266  161.5364 N.ar    1  UNL1       -0.2293
     10 C         140.0842  141.4700  162.2137 C.ar    1  UNL1        0.1188
     11 C         141.4418  141.7287  162.7968 C.ar    1  UNL1        0.0981
     12 N         141.8202  143.1452  162.4799 N.ar    1  UNL1       -0.3155
     13 C         143.0979  143.8255  162.8730 C.3     1  UNL1        0.0868
     14 C         144.3789  143.4768  162.1748 C.3     1  UNL1        0.0245
     15 C         143.0947  144.8546  163.9643 C.3     1  UNL1        0.0245
     16 N         142.6214  139.3416  167.2589 N.pl3   1  UNL1       -0.2825
     17 H         142.9046  138.5032  167.6904 H       1  UNL1        0.1551
     18 C         141.9467  140.4102  168.0669 C.ar    1  UNL1        0.0505
     19 C         142.7469  141.5558  168.6123 C.ar    1  UNL1        0.0148
     20 C         142.0722  142.6244  169.4202 C.ar    1  UNL1        0.0058
     21 C         140.5974  142.5475  169.6829 C.ar    1  UNL1        0.0532
     22 C         139.7972  141.4020  169.1375 C.ar    1  UNL1        0.0058
     23 C         140.4719  140.3333  168.3295 C.ar    1  UNL1        0.0148
     24 C         139.9228  143.6162  170.4909 C.2     1  UNL1        0.2427
     25 N         138.9424  143.2402  171.5621 N.am    1  UNL1       -0.3253
     26 O         140.2285  145.0609  170.2276 O.2     1  UNL1       -0.2704
     27 H         138.7418  142.2919  171.7348 H       1  UNL1        0.1453
     28 H         138.4997  143.9416  172.0924 H       1  UNL1        0.1453
@<TRIPOS>BOND
     1     7     8    1
     2     8     9   ar
     3     9    10   ar
     4    10    11   ar
     5    11     1    1
     6     1     2   ar
     7     2     3   ar
     8     3     4   ar
     9     4     5   ar
    10     5    16    1
    11    16    18    1
    12    18    19   ar
    13    19    20   ar
    14    20    21   ar
    15    21    24    1
    16    24    25   am
    17    24    26    2
    18    21    22   ar
    19    22    23   ar
    20     5     6   ar
    21    11    12   ar
    22    12    13    1
    23    13    14    1
    24    13    15    1
    25    12     8   ar
    26     6     1   ar
    27    23    18   ar
    28    16    17    1
    29    25    27    1
    30    25    28    1
