@<TRIPOS>MOLECULE
*****
 35 39 0 0 0
SMALL
GASTEIGER

@<TRIPOS>ATOM
      1 C         141.1339  140.9630  165.8122 C.ar    1  UNL1        0.2359
      2 N         140.3288  142.1697  165.4302 N.ar    1  UNL1       -0.1904
      3 C         141.1984  143.0615  164.5945 C.ar    1  UNL1        0.2006
      4 C         140.9412  144.3858  163.9387 C.ar    1  UNL1        0.1745
      5 C         142.0266  145.0546  163.1483 C.ar    1  UNL1        0.0416
      6 C         143.3690  144.3992  163.0137 C.ar    1  UNL1        0.0264
      7 C         143.6262  143.0749  163.6696 C.ar    1  UNL1        0.1560
      8 N         142.5409  142.4061  164.4600 N.ar    1  UNL1       -0.2028
      9 N         142.5010  141.1091  165.2125 N.ar    1  UNL1       -0.1284
     10 C         144.9687  142.4195  163.5350 C.3     1  UNL1        0.4349
     11 F         146.3112  141.7640  163.4004 F       1  UNL1       -0.1644
     12 F         145.3592  142.9420  164.8858 F       1  UNL1       -0.1644
     13 F         144.5782  141.8969  162.1843 F       1  UNL1       -0.1644
     14 N         140.6557  139.8123  166.6472 N.pl3   1  UNL1       -0.3033
     15 H         140.3563  138.9806  166.2138 H       1  UNL1        0.1496
     16 N         140.7388  139.8133  166.7804 N.pl3   1  UNL1       -0.2931
     17 C         139.4367  140.0118  167.4982 C.3     1  UNL1        0.0937
     18 C         139.4148  140.1283  168.9936 C.3     1  UNL1        0.0378
     19 C         139.8547  140.1890  170.4263 C.3     1  UNL1        0.0035
     20 C         141.3455  140.0271  170.4608 C.3     1  UNL1        0.0035
     21 C         141.8270  139.8662  169.0494 C.3     1  UNL1        0.0378
     22 C         142.0189  139.7313  167.5580 C.3     1  UNL1        0.0937
     23 C         140.6338  139.9288  168.1425 C.3     1  UNL1        0.0750
     24 C         143.1296  138.3110  162.4184 C.3     1  UNL1        0.0522
     25 C         141.9561  138.9457  163.1041 C.ar    1  UNL1        0.0639
     26 C         141.9342  139.0621  164.5994 C.ar    1  UNL1        0.0491
     27 C         140.7608  139.6968  165.2851 C.ar    1  UNL1        0.1346
     28 N         139.6092  140.2150  164.4755 N.ar    1  UNL1       -0.2090
     29 C         139.6311  140.0986  162.9802 C.ar    1  UNL1        0.1997
     30 N         140.8046  139.4639  162.2945 N.ar    1  UNL1       -0.2283
     31 O         139.5987  145.0413  164.0732 O.3     1  UNL1       -0.4662
     32 C         138.5253  144.7667  163.0621 C.3     1  UNL1        0.2773
     33 C         137.8184  143.4437  163.0594 C.3     1  UNL1        0.3615
     34 F         137.3759  142.8271  164.3532 F       1  UNL1       -0.1942
     35 F         137.5541  142.7372  161.7628 F       1  UNL1       -0.1942
@<TRIPOS>BOND
     1    24    25    1
     2    25    26   ar
     3    26    27   ar
     4    27    16    1
     5    16    17    1
     6    18    17    1
     7    18    19    1
     8    19    20    1
     9    21    20    1
    10    21    22    1
    11    21    23    1
    12    23    14    1
    13    14     1    1
    14     1     2   ar
    15     2     3   ar
    16     3     4   ar
    17     4    31    1
    18    31    32    1
    19    32    33    1
    20    33    34    1
    21    33    35    1
    22     4     5   ar
    23     5     6   ar
    24     6     7   ar
    25     7    10    1
    26    10    11    1
    27    10    12    1
    28    10    13    1
    29     7     8   ar
    30     8     9   ar
    31    27    28   ar
    32    28    29   ar
    33    29    30   ar
    34    30    25   ar
    35    22    16    1
    36     9     1   ar
    37    23    18    1
    38     8     3   ar
    39    14    15    1
@<TRIPOS>MOLECULE
*****
 35 39 0 0 0
SMALL
GASTEIGER

@<TRIPOS>ATOM
      1 C         141.0523  141.4254  166.2789 C.ar    1  UNL1        0.2359
      2 N         141.5992  140.2472  165.5288 N.ar    1  UNL1       -0.1904
      3 C         142.7413  140.7261  164.6825 C.ar    1  UNL1        0.2006
      4 C         143.6571  140.0103  163.7344 C.ar    1  UNL1        0.1745
      5 C         144.7319  140.7687  163.0134 C.ar    1  UNL1        0.0416
      6 C         144.8909  142.2427  163.2406 C.ar    1  UNL1        0.0264
      7 C         143.9751  142.9586  164.1887 C.ar    1  UNL1        0.1560
      8 N         142.9004  142.2003  164.9096 N.ar    1  UNL1       -0.2028
      9 N         141.8565  142.6325  165.8963 N.ar    1  UNL1       -0.1284
     10 C         144.1341  144.4327  164.4158 C.3     1  UNL1        0.4349
     11 F         144.2931  145.9069  164.6429 F       1  UNL1       -0.1644
     12 F         144.8844  144.1563  165.6850 F       1  UNL1       -0.1644
     13 F         143.3839  144.7092  163.1467 F       1  UNL1       -0.1644
     14 N         139.9031  141.4009  167.2426 N.pl3   1  UNL1       -0.3033
     15 H         138.9852  141.5470  166.9179 H       1  UNL1        0.1496
     16 N         139.9595  141.4571  167.3779 N.pl3   1  UNL1       -0.2931
     17 C         139.5591  140.1505  167.9964 C.3     1  UNL1        0.0937
     18 C         139.8083  139.9034  169.4548 C.3     1  UNL1        0.0378
     19 C         140.2326  140.0906  170.8813 C.3     1  UNL1        0.0035
     20 C         140.8389  141.4566  171.0091 C.3     1  UNL1        0.0035
     21 C         140.7892  142.1137  169.6617 C.3     1  UNL1        0.0378
     22 C         140.6092  142.5166  168.2179 C.3     1  UNL1        0.0937
     23 C         140.1523  141.1539  168.7010 C.3     1  UNL1        0.0750
     24 C         139.4221  144.7572  163.4004 C.3     1  UNL1        0.0522
     25 C         139.4417  143.3542  163.9308 C.ar    1  UNL1        0.0639
     26 C         139.6908  143.1072  165.3892 C.ar    1  UNL1        0.0491
     27 C         139.7103  141.7042  165.9195 C.ar    1  UNL1        0.1346
     28 N         139.4807  140.5483  164.9916 N.ar    1  UNL1       -0.2090
     29 C         139.2315  140.7954  163.5332 C.ar    1  UNL1        0.1997
     30 N         139.2120  142.1983  163.0028 N.ar    1  UNL1       -0.2283
     31 O         143.4982  138.5361  163.5072 O.3     1  UNL1       -0.4662
     32 C         142.3562  138.0234  162.6807 C.3     1  UNL1        0.2773
     33 C         141.1904  137.3537  163.3458 C.3     1  UNL1        0.3615
     34 F         141.3608  136.7143  164.6920 F       1  UNL1       -0.1942
     35 F         139.8543  137.3233  162.6648 F       1  UNL1       -0.1942
@<TRIPOS>BOND
     1    24    25    1
     2    25    26   ar
     3    26    27   ar
     4    27    16    1
     5    16    17    1
     6    18    17    1
     7    18    19    1
     8    19    20    1
     9    21    20    1
    10    21    22    1
    11    21    23    1
    12    23    14    1
    13    14     1    1
    14     1     2   ar
    15     2     3   ar
    16     3     4   ar
    17     4    31    1
    18    31    32    1
    19    32    33    1
    20    33    34    1
    21    33    35    1
    22     4     5   ar
    23     5     6   ar
    24     6     7   ar
    25     7    10    1
    26    10    11    1
    27    10    12    1
    28    10    13    1
    29     7     8   ar
    30     8     9   ar
    31    27    28   ar
    32    28    29   ar
    33    29    30   ar
    34    30    25   ar
    35    22    16    1
    36     9     1   ar
    37    23    18    1
    38     8     3   ar
    39    14    15    1
@<TRIPOS>MOLECULE
*****
 35 39 0 0 0
SMALL
GASTEIGER

@<TRIPOS>ATOM
      1 C         140.8758  140.9738  166.1631 C.ar    1  UNL1        0.2359
      2 N         140.2484  139.8284  165.4252 N.ar    1  UNL1       -0.1904
      3 C         141.2522  139.3059  164.4406 C.ar    1  UNL1        0.2006
      4 C         141.1913  138.1875  163.4430 C.ar    1  UNL1        0.1745
      5 C         142.3782  137.8915  162.5747 C.ar    1  UNL1        0.0416
      6 C         143.6258  138.7140  162.7041 C.ar    1  UNL1        0.0264
      7 C         143.6868  139.8324  163.7018 C.ar    1  UNL1        0.1560
      8 N         142.5000  140.1284  164.5700 N.ar    1  UNL1       -0.2028
      9 N         142.2673  141.1592  165.6346 N.ar    1  UNL1       -0.1284
     10 C         144.9345  140.6549  163.8312 C.3     1  UNL1        0.4349
     11 F         146.1823  141.4773  163.9606 F       1  UNL1       -0.1644
     12 F         144.2716  141.7772  163.0889 F       1  UNL1       -0.1644
     13 F         145.5973  139.5325  164.5734 F       1  UNL1       -0.1644
     14 N         140.2257  141.7904  167.2404 N.pl3   1  UNL1       -0.3033
     15 H         139.6730  142.5694  167.0018 H       1  UNL1        0.1496
     16 N         140.2017  141.6840  167.3533 N.pl3   1  UNL1       -0.2931
     17 C         140.9187  142.6213  168.2794 C.3     1  UNL1        0.0937
     18 C         141.1107  142.2510  169.7203 C.3     1  UNL1        0.0378
     19 C         141.0719  141.4984  171.0172 C.3     1  UNL1        0.0035
     20 C         140.3549  140.2024  170.7798 C.3     1  UNL1        0.0035
     21 C         139.9507  140.1540  169.3362 C.3     1  UNL1        0.0378
     22 C         139.6769  140.3765  167.8682 C.3     1  UNL1        0.0937
     23 C         140.4178  141.4201  168.6812 C.3     1  UNL1        0.0750
     24 C         137.3688  141.5077  163.0009 C.3     1  UNL1        0.0522
     25 C         138.5932  141.9660  163.7363 C.ar    1  UNL1        0.0639
     26 C         138.7852  141.5958  165.1772 C.ar    1  UNL1        0.0491
     27 C         140.0096  142.0542  165.9125 C.ar    1  UNL1        0.1346
     28 N         141.0420  142.8828  165.2070 N.ar    1  UNL1       -0.2090
     29 C         140.8500  143.2530  163.7662 C.ar    1  UNL1        0.1997
     30 N         139.6256  142.7946  163.0308 N.ar    1  UNL1       -0.2283
     31 O         139.9436  137.3649  163.3135 O.3     1  UNL1       -0.4662
     32 C         138.6564  138.0148  162.9004 C.3     1  UNL1        0.2773
     33 C         138.3777  138.2711  161.4490 C.3     1  UNL1        0.3615
     34 F         139.4199  137.9542  160.4178 F       1  UNL1       -0.1942
     35 F         137.0568  138.8444  161.0287 F       1  UNL1       -0.1942
@<TRIPOS>BOND
     1    24    25    1
     2    25    26   ar
     3    26    27   ar
     4    27    16    1
     5    16    17    1
     6    18    17    1
     7    18    19    1
     8    19    20    1
     9    21    20    1
    10    21    22    1
    11    21    23    1
    12    23    14    1
    13    14     1    1
    14     1     2   ar
    15     2     3   ar
    16     3     4   ar
    17     4    31    1
    18    31    32    1
    19    32    33    1
    20    33    34    1
    21    33    35    1
    22     4     5   ar
    23     5     6   ar
    24     6     7   ar
    25     7    10    1
    26    10    11    1
    27    10    12    1
    28    10    13    1
    29     7     8   ar
    30     8     9   ar
    31    27    28   ar
    32    28    29   ar
    33    29    30   ar
    34    30    25   ar
    35    22    16    1
    36     9     1   ar
    37    23    18    1
    38     8     3   ar
    39    14    15    1
@<TRIPOS>MOLECULE
*****
 35 39 0 0 0
SMALL
GASTEIGER

@<TRIPOS>ATOM
      1 C         140.8911  141.0843  166.2089 C.ar    1  UNL1        0.2359
      2 N         142.3503  141.0276  165.8663 N.ar    1  UNL1       -0.1904
      3 C         142.5222  140.0657  164.7282 C.ar    1  UNL1        0.2006
      4 C         143.7360  139.6100  163.9739 C.ar    1  UNL1        0.1745
      5 C         143.5967  138.6165  162.8587 C.ar    1  UNL1        0.0416
      6 C         142.2438  138.0787  162.4979 C.ar    1  UNL1        0.0264
      7 C         141.0300  138.5344  163.2523 C.ar    1  UNL1        0.1560
      8 N         141.1692  139.5279  164.3675 N.ar    1  UNL1       -0.2028
      9 N         140.1611  140.1574  165.2825 N.ar    1  UNL1       -0.1284
     10 C         139.6770  137.9966  162.8915 C.3     1  UNL1        0.4349
     11 F         138.3240  137.4588  162.5306 F       1  UNL1       -0.1644
     12 F         139.6605  137.1898  164.1560 F       1  UNL1       -0.1644
     13 F         139.6935  138.8033  161.6270 F       1  UNL1       -0.1644
     14 N         140.2707  141.9209  167.2883 N.pl3   1  UNL1       -0.3033
     15 H         139.7924  142.7493  167.0553 H       1  UNL1        0.1496
     16 N         140.2455  141.8080  167.3943 N.pl3   1  UNL1       -0.2931
     17 C         140.8262  142.7440  168.4125 C.3     1  UNL1        0.0937
     18 C         140.9346  142.3186  169.8468 C.3     1  UNL1        0.0378
     19 C         140.8497  141.5041  171.1035 C.3     1  UNL1        0.0035
     20 C         140.2417  140.1776  170.7560 C.3     1  UNL1        0.0035
     21 C         139.9508  140.1723  169.2846 C.3     1  UNL1        0.0378
     22 C         139.7732  140.4465  167.8106 C.3     1  UNL1        0.0937
     23 C         140.3790  141.4955  168.7226 C.3     1  UNL1        0.0750
     24 C         137.5544  142.0199  162.9544 C.3     1  UNL1        0.0522
     25 C         138.7917  142.3394  163.7401 C.ar    1  UNL1        0.0639
     26 C         138.8999  141.9139  165.1744 C.ar    1  UNL1        0.0491
     27 C         140.1372  142.2334  165.9600 C.ar    1  UNL1        0.1346
     28 N         141.2661  142.9782  165.3114 N.ar    1  UNL1       -0.2090
     29 C         141.1578  143.4036  163.8770 C.ar    1  UNL1        0.1997
     30 N         139.9206  143.0842  163.0914 N.ar    1  UNL1       -0.2283
     31 O         145.0891  140.1478  164.3346 O.3     1  UNL1       -0.4662
     32 C         145.6267  141.3587  163.6313 C.3     1  UNL1        0.2773
     33 C         145.0252  142.7074  163.8942 C.3     1  UNL1        0.3615
     34 F         144.7105  143.6243  162.7495 F       1  UNL1       -0.1942
     35 F         144.7384  143.1393  165.3017 F       1  UNL1       -0.1942
@<TRIPOS>BOND
     1    24    25    1
     2    25    26   ar
     3    26    27   ar
     4    27    16    1
     5    16    17    1
     6    18    17    1
     7    18    19    1
     8    19    20    1
     9    21    20    1
    10    21    22    1
    11    21    23    1
    12    23    14    1
    13    14     1    1
    14     1     2   ar
    15     2     3   ar
    16     3     4   ar
    17     4    31    1
    18    31    32    1
    19    32    33    1
    20    33    34    1
    21    33    35    1
    22     4     5   ar
    23     5     6   ar
    24     6     7   ar
    25     7    10    1
    26    10    11    1
    27    10    12    1
    28    10    13    1
    29     7     8   ar
    30     8     9   ar
    31    27    28   ar
    32    28    29   ar
    33    29    30   ar
    34    30    25   ar
    35    22    16    1
    36     9     1   ar
    37    23    18    1
    38     8     3   ar
    39    14    15    1
@<TRIPOS>MOLECULE
*****
 35 39 0 0 0
SMALL
GASTEIGER

@<TRIPOS>ATOM
      1 C         141.2932  141.1688  166.3645 C.ar    1  UNL1        0.2359
      2 N         142.4645  141.7698  165.6457 N.ar    1  UNL1       -0.1904
      3 C         141.9823  142.9830  164.9071 C.ar    1  UNL1        0.2006
      4 C         142.6913  143.9715  164.0295 C.ar    1  UNL1        0.1745
      5 C         141.9309  145.1088  163.4142 C.ar    1  UNL1        0.0416
      6 C         140.4616  145.2575  163.6765 C.ar    1  UNL1        0.0264
      7 C         139.7525  144.2690  164.5541 C.ar    1  UNL1        0.1560
      8 N         140.5129  143.1318  165.1694 N.ar    1  UNL1       -0.2028
      9 N         140.0870  142.0105  166.0701 N.ar    1  UNL1       -0.1284
     10 C         138.2832  144.4178  164.8164 C.3     1  UNL1        0.4349
     11 F         136.8138  144.5666  165.0788 F       1  UNL1       -0.1644
     12 F         137.9869  143.4616  163.6992 F       1  UNL1       -0.1644
     13 F         138.5794  145.3740  165.9335 F       1  UNL1       -0.1644
     14 N         141.3228  139.9415  167.2264 N.pl3   1  UNL1       -0.3033
     15 H         141.2445  139.0499  166.8162 H       1  UNL1        0.1496
     16 N         141.2512  139.9626  167.3645 N.pl3   1  UNL1       -0.2931
     17 C         142.6112  139.8822  167.9921 C.3     1  UNL1        0.0937
     18 C         142.7601  140.0133  169.4790 C.3     1  UNL1        0.0378
     19 C         142.4429  140.1900  170.9344 C.3     1  UNL1        0.0035
     20 C         140.9584  140.3586  171.0681 C.3     1  UNL1        0.0035
     21 C         140.3581  140.2860  169.6954 C.3     1  UNL1        0.0378
     22 C         140.0400  140.1742  168.2238 C.3     1  UNL1        0.0937
     23 C         141.4716  140.0726  168.7132 C.3     1  UNL1        0.0750
     24 C         138.2327  139.8540  163.1364 C.3     1  UNL1        0.0522
     25 C         139.5931  139.7772  163.7637 C.ar    1  UNL1        0.0639
     26 C         139.7419  139.9083  165.2505 C.ar    1  UNL1        0.0491
     27 C         141.1023  139.8315  165.8777 C.ar    1  UNL1        0.1346
     28 N         142.3139  139.6237  165.0181 N.ar    1  UNL1       -0.2090
     29 C         142.1651  139.4926  163.5313 C.ar    1  UNL1        0.1997
     30 N         140.8047  139.5694  162.9041 N.ar    1  UNL1       -0.2283
     31 O         144.1607  143.8228  163.7671 O.3     1  UNL1       -0.4662
     32 C         144.6359  142.9977  162.6081 C.3     1  UNL1        0.2773
     33 C         145.2206  141.6370  162.8460 C.3     1  UNL1        0.3615
     34 F         146.0932  141.3942  164.0417 F       1  UNL1       -0.1942
     35 F         144.9328  140.5190  161.8883 F       1  UNL1       -0.1942
@<TRIPOS>BOND
     1    24    25    1
     2    25    26   ar
     3    26    27   ar
     4    27    16    1
     5    16    17    1
     6    18    17    1
     7    18    19    1
     8    19    20    1
     9    21    20    1
    10    21    22    1
    11    21    23    1
    12    23    14    1
    13    14     1    1
    14     1     2   ar
    15     2     3   ar
    16     3     4   ar
    17     4    31    1
    18    31    32    1
    19    32    33    1
    20    33    34    1
    21    33    35    1
    22     4     5   ar
    23     5     6   ar
    24     6     7   ar
    25     7    10    1
    26    10    11    1
    27    10    12    1
    28    10    13    1
    29     7     8   ar
    30     8     9   ar
    31    27    28   ar
    32    28    29   ar
    33    29    30   ar
    34    30    25   ar
    35    22    16    1
    36     9     1   ar
    37    23    18    1
    38     8     3   ar
    39    14    15    1
@<TRIPOS>MOLECULE
*****
 35 39 0 0 0
SMALL
GASTEIGER

@<TRIPOS>ATOM
      1 C         140.7293  140.8557  165.9945 C.ar    1  UNL1        0.2359
      2 N         141.7268  141.1457  164.9125 N.ar    1  UNL1       -0.1904
      3 C         141.3092  142.4113  164.2242 C.ar    1  UNL1        0.2006
      4 C         141.9101  143.1792  163.0843 C.ar    1  UNL1        0.1745
      5 C         141.2552  144.4392  162.6010 C.ar    1  UNL1        0.0416
      6 C         139.9996  144.9313  163.2575 C.ar    1  UNL1        0.0264
      7 C         139.3987  144.1635  164.3974 C.ar    1  UNL1        0.1560
      8 N         140.0535  142.9035  164.8807 N.ar    1  UNL1       -0.2028
      9 N         139.6951  141.9421  165.9749 N.ar    1  UNL1       -0.1284
     10 C         138.1431  144.6557  165.0540 C.3     1  UNL1        0.4349
     11 F         136.8873  145.1478  165.7105 F       1  UNL1       -0.1644
     12 F         138.9320  145.0496  166.2674 F       1  UNL1       -0.1644
     13 F         137.3542  144.2617  163.8405 F       1  UNL1       -0.1644
     14 N         140.7604  139.6849  166.9317 N.pl3   1  UNL1       -0.3033
     15 H         140.4626  138.7989  166.6226 H       1  UNL1        0.1496
     16 N         140.7230  139.7172  167.0807 N.pl3   1  UNL1       -0.2931
     17 C         142.1801  139.5559  167.3984 C.3     1  UNL1        0.0937
     18 C         142.6650  139.7350  168.8066 C.3     1  UNL1        0.0378
     19 C         142.6927  139.9949  170.2837 C.3     1  UNL1        0.0035
     20 C         141.2902  140.2845  170.7297 C.3     1  UNL1        0.0035
     21 C         140.3957  140.2037  169.5285 C.3     1  UNL1        0.0378
     22 C         139.7509  140.0576  168.1712 C.3     1  UNL1        0.0937
     23 C         141.2453  139.8641  168.3398 C.3     1  UNL1        0.0750
     24 C         141.5407  138.0991  162.2111 C.3     1  UNL1        0.0522
     25 C         140.6469  138.7290  163.2379 C.ar    1  UNL1        0.0639
     26 C         141.1319  138.9081  164.6459 C.ar    1  UNL1        0.0491
     27 C         140.2381  139.5381  165.6726 C.ar    1  UNL1        0.1346
     28 N         138.8592  139.9889  165.2913 N.ar    1  UNL1       -0.2090
     29 C         138.3742  139.8099  163.8833 C.ar    1  UNL1        0.1997
     30 N         139.2680  139.1799  162.8565 N.ar    1  UNL1       -0.2283
     31 O         143.1658  142.6870  162.4277 O.3     1  UNL1       -0.4662
     32 C         144.5041  143.1087  162.9577 C.3     1  UNL1        0.2773
     33 C         145.0540  142.4707  164.1990 C.3     1  UNL1        0.3615
     34 F         144.4752  142.8158  165.5391 F       1  UNL1       -0.1942
     35 F         146.1826  141.4876  164.1001 F       1  UNL1       -0.1942
@<TRIPOS>BOND
     1    24    25    1
     2    25    26   ar
     3    26    27   ar
     4    27    16    1
     5    16    17    1
     6    18    17    1
     7    18    19    1
     8    19    20    1
     9    21    20    1
    10    21    22    1
    11    21    23    1
    12    23    14    1
    13    14     1    1
    14     1     2   ar
    15     2     3   ar
    16     3     4   ar
    17     4    31    1
    18    31    32    1
    19    32    33    1
    20    33    34    1
    21    33    35    1
    22     4     5   ar
    23     5     6   ar
    24     6     7   ar
    25     7    10    1
    26    10    11    1
    27    10    12    1
    28    10    13    1
    29     7     8   ar
    30     8     9   ar
    31    27    28   ar
    32    28    29   ar
    33    29    30   ar
    34    30    25   ar
    35    22    16    1
    36     9     1   ar
    37    23    18    1
    38     8     3   ar
    39    14    15    1
