@<TRIPOS>MOLECULE
*****
 27 29 0 0 0
SMALL
GASTEIGER

@<TRIPOS>ATOM
      1 C         139.7260  141.2694  166.5101 C.2     1  UNL1        0.0099
      2 C         140.0371  141.7114  167.9093 C.2     1  UNL1       -0.0400
      3 C         140.4366  143.1326  168.1756 C.3     1  UNL1        0.0392
      4 C         140.7476  143.5746  169.5748 C.3     1  UNL1        0.0730
      5 N         140.6592  142.5955  170.7078 N.3     1  UNL1       -0.2969
      6 C         140.2596  141.1745  170.4416 C.3     1  UNL1        0.0730
      7 C         139.9486  140.7324  169.0423 C.3     1  UNL1        0.0392
      8 H         139.9817  142.9726  171.3706 H       1  UNL1        0.1233
      9 C         139.9915  144.2065  163.1112 C.ar    1  UNL1        0.0536
     10 C         138.6575  143.8685  163.7079 C.ar    1  UNL1        0.0045
     11 C         138.5690  142.8895  164.8408 C.ar    1  UNL1        0.0002
     12 C         139.8145  142.2485  165.3771 C.ar    1  UNL1        0.0008
     13 C         141.1486  142.5865  164.7805 C.ar    1  UNL1        0.0002
     14 C         141.2371  143.5655  163.6475 C.ar    1  UNL1        0.0045
     15 N         140.1201  144.6924  160.5622 N.am    1  UNL1       -0.2761
     16 C         140.0800  145.1856  161.9782 C.2     1  UNL1        0.2490
     17 O         140.1284  146.6578  162.2612 O.2     1  UNL1       -0.2699
     18 C         140.3674  145.1774  158.0218 C.3     1  UNL1        0.0233
     19 C         140.2086  145.6714  159.4292 C.3     1  UNL1        0.0938
     20 C         140.0717  143.2201  160.2791 C.3     1  UNL1        0.0938
     21 C         138.7498  142.5330  160.1048 C.3     1  UNL1        0.0233
     22 C         139.3265  139.8484  166.2439 C.ar    1  UNL1        0.0807
     23 C         138.1314  139.2631  166.9360 C.ar    1  UNL1        0.0191
     24 C         137.7319  137.8419  166.6697 C.ar    1  UNL1        0.0031
     25 C         138.5275  137.0062  165.7114 C.ar    1  UNL1        0.0207
     26 C         139.7227  137.5915  165.0193 C.ar    1  UNL1        0.0988
     27 N         140.1222  139.0125  165.2855 N.ar    1  UNL1       -0.2439
@<TRIPOS>BOND
     1    18    19    1
     2    19    15    1
     3    15    20    1
     4    20    21    1
     5    15    16   am
     6    16    17    2
     7    16     9    1
     8     9    10   ar
     9    10    11   ar
    10    11    12   ar
    11    12     1    1
    12     1     2    2
    13     2     3    1
    14     3     4    1
    15     4     5    1
    16     5     6    1
    17     6     7    1
    18     1    22    1
    19    22    23   ar
    20    23    24   ar
    21    24    25   ar
    22    25    26   ar
    23    26    27   ar
    24    12    13   ar
    25    13    14   ar
    26    14     9   ar
    27     7     2    1
    28    27    22   ar
    29     5     8    1
@<TRIPOS>MOLECULE
*****
 27 29 0 0 0
SMALL
GASTEIGER

@<TRIPOS>ATOM
      1 C         139.8712  142.2264  162.8632 C.2     1  UNL1        0.0099
      2 C         139.0394  141.0923  162.3417 C.2     1  UNL1       -0.0400
      3 C         138.8356  139.8647  163.1793 C.3     1  UNL1        0.0392
      4 C         138.0038  138.7306  162.6578 C.3     1  UNL1        0.0730
      5 N         137.3757  138.8241  161.2989 N.3     1  UNL1       -0.2969
      6 C         137.5794  140.0517  160.4614 C.3     1  UNL1        0.0730
      7 C         138.4113  141.1859  160.9828 C.3     1  UNL1        0.0392
      8 H         136.3696  138.7221  161.4319 H       1  UNL1        0.1233
      9 C         141.7555  141.9458  166.9400 C.ar    1  UNL1        0.0536
     10 C         142.4219  141.3031  165.7599 C.ar    1  UNL1        0.0045
     11 C         141.7939  141.3966  164.4010 C.ar    1  UNL1        0.0002
     12 C         140.4993  142.1329  164.2221 C.ar    1  UNL1        0.0008
     13 C         139.8329  142.7756  165.4022 C.ar    1  UNL1        0.0002
     14 C         140.4610  142.6821  166.7612 C.ar    1  UNL1        0.0045
     15 N         141.8163  140.9163  169.3246 N.am    1  UNL1       -0.2761
     16 C         142.3836  141.8523  168.2990 C.2     1  UNL1        0.2490
     17 O         143.5790  142.6948  168.6323 O.2     1  UNL1       -0.2699
     18 C         143.3897  139.7011  170.9973 C.3     1  UNL1        0.0233
     19 C         142.4444  140.8228  170.6836 C.3     1  UNL1        0.0938
     20 C         140.6208  140.0737  168.9913 C.3     1  UNL1        0.0938
     21 C         139.2733  140.4315  169.5446 C.3     1  UNL1        0.0233
     22 C         140.0750  143.4540  162.0256 C.ar    1  UNL1        0.0807
     23 C         139.3904  144.7364  162.3955 C.ar    1  UNL1        0.0191
     24 C         139.5941  145.9640  161.5579 C.ar    1  UNL1        0.0031
     25 C         140.4825  145.9092  160.3505 C.ar    1  UNL1        0.0207
     26 C         141.1671  144.6268  159.9806 C.ar    1  UNL1        0.0988
     27 N         140.9633  143.3992  160.8182 N.ar    1  UNL1       -0.2439
@<TRIPOS>BOND
     1    18    19    1
     2    19    15    1
     3    15    20    1
     4    20    21    1
     5    15    16   am
     6    16    17    2
     7    16     9    1
     8     9    10   ar
     9    10    11   ar
    10    11    12   ar
    11    12     1    1
    12     1     2    2
    13     2     3    1
    14     3     4    1
    15     4     5    1
    16     5     6    1
    17     6     7    1
    18     1    22    1
    19    22    23   ar
    20    23    24   ar
    21    24    25   ar
    22    25    26   ar
    23    26    27   ar
    24    12    13   ar
    25    13    14   ar
    26    14     9   ar
    27     7     2    1
    28    27    22   ar
    29     5     8    1
@<TRIPOS>MOLECULE
*****
 27 29 0 0 0
SMALL
GASTEIGER

@<TRIPOS>ATOM
      1 C         141.1382  141.1208  164.3949 C.2     1  UNL1        0.0099
      2 C         141.1549  139.6771  163.9884 C.2     1  UNL1       -0.0400
      3 C         140.9134  139.2980  162.5573 C.3     1  UNL1        0.0392
      4 C         140.9301  137.8542  162.1508 C.3     1  UNL1        0.0730
      5 N         141.1883  136.7895  163.1753 N.3     1  UNL1       -0.2969
      6 C         141.4299  137.1685  164.6064 C.3     1  UNL1        0.0730
      7 C         141.4132  138.6124  165.0130 C.3     1  UNL1        0.0392
      8 H         142.0121  136.2749  162.8640 H       1  UNL1        0.1233
      9 C         140.3635  144.3149  161.3213 C.ar    1  UNL1        0.0536
     10 C         139.2207  143.5240  161.8854 C.ar    1  UNL1        0.0045
     11 C         139.4789  142.4593  162.9100 C.ar    1  UNL1        0.0002
     12 C         140.8800  142.1855  163.3704 C.ar    1  UNL1        0.0008
     13 C         142.0228  142.9765  162.8062 C.ar    1  UNL1        0.0002
     14 C         141.7645  144.0412  161.7816 C.ar    1  UNL1        0.0045
     15 N         140.3953  145.1138  158.8493 N.am    1  UNL1       -0.2761
     16 C         140.1052  145.3796  160.2967 C.2     1  UNL1        0.2490
     17 O         139.5568  146.7102  160.7196 O.2     1  UNL1       -0.2699
     18 C         140.8188  146.1161  156.4900 C.3     1  UNL1        0.0233
     19 C         140.1371  146.1785  157.8247 C.3     1  UNL1        0.0938
     20 C         140.9437  143.7832  158.4263 C.3     1  UNL1        0.0938
     21 C         140.0093  142.6768  158.0355 C.3     1  UNL1        0.0233
     22 C         141.3798  141.4998  165.8259 C.ar    1  UNL1        0.0807
     23 C         142.7694  141.8164  166.2937 C.ar    1  UNL1        0.0191
     24 C         143.0109  142.1955  167.7248 C.ar    1  UNL1        0.0031
     25 C         141.8629  142.2579  168.6881 C.ar    1  UNL1        0.0207
     26 C         140.4733  141.9413  168.2204 C.ar    1  UNL1        0.0988
     27 N         140.2317  141.5623  166.7894 N.ar    1  UNL1       -0.2439
@<TRIPOS>BOND
     1    18    19    1
     2    19    15    1
     3    15    20    1
     4    20    21    1
     5    15    16   am
     6    16    17    2
     7    16     9    1
     8     9    10   ar
     9    10    11   ar
    10    11    12   ar
    11    12     1    1
    12     1     2    2
    13     2     3    1
    14     3     4    1
    15     4     5    1
    16     5     6    1
    17     6     7    1
    18     1    22    1
    19    22    23   ar
    20    23    24   ar
    21    24    25   ar
    22    25    26   ar
    23    26    27   ar
    24    12    13   ar
    25    13    14   ar
    26    14     9   ar
    27     7     2    1
    28    27    22   ar
    29     5     8    1
@<TRIPOS>MOLECULE
*****
 27 29 0 0 0
SMALL
GASTEIGER

@<TRIPOS>ATOM
      1 C         141.2572  141.5093  166.6177 C.2     1  UNL1        0.0099
      2 C         142.1867  140.3406  166.4757 C.2     1  UNL1       -0.0400
      3 C         142.7703  140.0049  165.1352 C.3     1  UNL1        0.0392
      4 C         143.6998  138.8363  164.9932 C.3     1  UNL1        0.0730
      5 N         144.0457  138.0032  166.1917 N.3     1  UNL1       -0.2969
      6 C         143.4622  138.3388  167.5321 C.3     1  UNL1        0.0730
      7 C         142.5327  139.5075  167.6742 C.3     1  UNL1        0.0392
      8 H         145.0599  138.0415  166.2941 H       1  UNL1        0.1233
      9 C         140.2194  144.0085  163.0223 C.ar    1  UNL1        0.0536
     10 C         141.4499  144.3193  163.8218 C.ar    1  UNL1        0.0045
     11 C         141.7959  143.4862  165.0202 C.ar    1  UNL1        0.0002
     12 C         140.9113  142.3424  165.4192 C.ar    1  UNL1        0.0008
     13 C         139.6808  142.0316  164.6197 C.ar    1  UNL1        0.0002
     14 C         139.3349  142.8647  163.4212 C.ar    1  UNL1        0.0045
     15 N         140.6224  144.6531  160.5379 N.am    1  UNL1       -0.2761
     16 C         139.8735  144.8416  161.8238 C.2     1  UNL1        0.2490
     17 O         138.7786  145.8631  161.9112 O.2     1  UNL1       -0.2699
     18 C         141.2194  145.5525  158.1747 C.3     1  UNL1        0.0233
     19 C         140.2765  145.4862  159.3395 C.3     1  UNL1        0.0938
     20 C         141.7173  143.6315  160.4504 C.3     1  UNL1        0.0938
     21 C         141.3968  142.2205  160.0553 C.3     1  UNL1        0.0233
     22 C         140.6737  141.8449  167.9581 C.ar    1  UNL1        0.0807
     23 C         140.9735  143.1688  168.5964 C.ar    1  UNL1        0.0191
     24 C         140.3899  143.5044  169.9369 C.ar    1  UNL1        0.0031
     25 C         139.5066  142.5161  170.6390 C.ar    1  UNL1        0.0207
     26 C         139.2068  141.1922  170.0007 C.ar    1  UNL1        0.0988
     27 N         139.7903  140.8566  168.6603 N.ar    1  UNL1       -0.2439
@<TRIPOS>BOND
     1    18    19    1
     2    19    15    1
     3    15    20    1
     4    20    21    1
     5    15    16   am
     6    16    17    2
     7    16     9    1
     8     9    10   ar
     9    10    11   ar
    10    11    12   ar
    11    12     1    1
    12     1     2    2
    13     2     3    1
    14     3     4    1
    15     4     5    1
    16     5     6    1
    17     6     7    1
    18     1    22    1
    19    22    23   ar
    20    23    24   ar
    21    24    25   ar
    22    25    26   ar
    23    26    27   ar
    24    12    13   ar
    25    13    14   ar
    26    14     9   ar
    27     7     2    1
    28    27    22   ar
    29     5     8    1
@<TRIPOS>MOLECULE
*****
 27 29 0 0 0
SMALL
GASTEIGER

@<TRIPOS>ATOM
      1 C         141.5619  141.9423  162.2967 C.2     1  UNL1        0.0099
      2 C         140.9659  143.2500  161.8670 C.2     1  UNL1       -0.0400
      3 C         140.5347  144.2522  162.8965 C.3     1  UNL1        0.0392
      4 C         139.9387  145.5598  162.4667 C.3     1  UNL1        0.0730
      5 N         139.7738  145.8654  161.0075 N.3     1  UNL1       -0.2969
      6 C         140.2049  144.8633  159.9780 C.3     1  UNL1        0.0730
      7 C         140.8010  143.5556  160.4077 C.3     1  UNL1        0.0392
      8 H         140.2993  146.7203  160.8244 H       1  UNL1        0.1233
      9 C         142.0566  141.0256  166.6745 C.ar    1  UNL1        0.0536
     10 C         143.1044  141.8186  165.9512 C.ar    1  UNL1        0.0045
     11 C         142.9395  142.1242  164.4919 C.ar    1  UNL1        0.0002
     12 C         141.7268  141.6368  163.7560 C.ar    1  UNL1        0.0008
     13 C         140.6790  140.8437  164.4793 C.ar    1  UNL1        0.0002
     14 C         140.8439  140.5381  165.9385 C.ar    1  UNL1        0.0045
     15 N         141.6159  141.6275  169.1631 N.am    1  UNL1       -0.2761
     16 C         142.2215  140.7200  168.1337 C.2     1  UNL1        0.2490
     17 O         142.9919  139.5070  168.5636 O.2     1  UNL1       -0.2699
     18 C         140.7690  140.4694  171.3292 C.3     1  UNL1        0.0233
     19 C         141.7809  141.3219  170.6224 C.3     1  UNL1        0.0938
     20 C         140.8454  142.8407  168.7333 C.3     1  UNL1        0.0938
     21 C         140.4390  143.8690  169.7469 C.3     1  UNL1        0.0233
     22 C         141.9930  140.9402  161.2672 C.ar    1  UNL1        0.0807
     23 C         143.4026  140.9506  160.7546 C.ar    1  UNL1        0.0191
     24 C         143.8337  139.9485  159.7250 C.ar    1  UNL1        0.0031
     25 C         142.8551  138.9360  159.2082 C.ar    1  UNL1        0.0207
     26 C         141.4455  138.9256  159.7208 C.ar    1  UNL1        0.0988
     27 N         141.0144  139.9277  160.7503 N.ar    1  UNL1       -0.2439
@<TRIPOS>BOND
     1    18    19    1
     2    19    15    1
     3    15    20    1
     4    20    21    1
     5    15    16   am
     6    16    17    2
     7    16     9    1
     8     9    10   ar
     9    10    11   ar
    10    11    12   ar
    11    12     1    1
    12     1     2    2
    13     2     3    1
    14     3     4    1
    15     4     5    1
    16     5     6    1
    17     6     7    1
    18     1    22    1
    19    22    23   ar
    20    23    24   ar
    21    24    25   ar
    22    25    26   ar
    23    26    27   ar
    24    12    13   ar
    25    13    14   ar
    26    14     9   ar
    27     7     2    1
    28    27    22   ar
    29     5     8    1
@<TRIPOS>MOLECULE
*****
 27 29 0 0 0
SMALL
GASTEIGER

@<TRIPOS>ATOM
      1 C         141.1706  141.0055  166.9214 C.2     1  UNL1        0.0099
      2 C         139.9441  140.1480  167.0228 C.2     1  UNL1       -0.0400
      3 C         139.4260  139.4337  165.8098 C.3     1  UNL1        0.0392
      4 C         138.1994  138.5762  165.9112 C.3     1  UNL1        0.0730
      5 N         137.4910  138.4330  167.2256 N.3     1  UNL1       -0.2969
      6 C         138.0091  139.1473  168.4385 C.3     1  UNL1        0.0730
      7 C         139.2357  140.0048  168.3372 C.3     1  UNL1        0.0392
      8 H         137.4849  137.4380  167.4499 H       1  UNL1        0.1233
      9 C         143.2960  141.4350  162.9782 C.ar    1  UNL1        0.0536
     10 C         142.3759  142.5189  163.4562 C.ar    1  UNL1        0.0045
     11 C         141.6674  142.3757  164.7706 C.ar    1  UNL1        0.0002
     12 C         141.8791  141.1487  165.6070 C.ar    1  UNL1        0.0008
     13 C         142.7992  140.0648  165.1289 C.ar    1  UNL1        0.0002
     14 C         143.5077  140.2080  163.8146 C.ar    1  UNL1        0.0045
     15 N         143.3101  141.1919  160.3916 N.am    1  UNL1       -0.2761
     16 C         144.0044  141.5782  161.6638 C.2     1  UNL1        0.2490
     17 O         145.4072  142.1076  161.6217 O.2     1  UNL1       -0.2699
     18 C         143.8959  142.6085  158.2939 C.3     1  UNL1        0.0233
     19 C         144.0185  141.3351  159.0772 C.3     1  UNL1        0.0938
     20 C         141.9072  140.6624  160.4337 C.3     1  UNL1        0.0938
     21 C         140.7477  141.5947  160.2431 C.3     1  UNL1        0.0233
     22 C         141.6887  141.7198  168.1343 C.ar    1  UNL1        0.0807
     23 C         143.0237  141.3497  168.7095 C.ar    1  UNL1        0.0191
     24 C         143.5418  142.0641  169.9225 C.ar    1  UNL1        0.0031
     25 C         142.7249  143.1484  170.5603 C.ar    1  UNL1        0.0207
     26 C         141.3899  143.5184  169.9852 C.ar    1  UNL1        0.0988
     27 N         140.8718  142.8041  168.7722 N.ar    1  UNL1       -0.2439
@<TRIPOS>BOND
     1    18    19    1
     2    19    15    1
     3    15    20    1
     4    20    21    1
     5    15    16   am
     6    16    17    2
     7    16     9    1
     8     9    10   ar
     9    10    11   ar
    10    11    12   ar
    11    12     1    1
    12     1     2    2
    13     2     3    1
    14     3     4    1
    15     4     5    1
    16     5     6    1
    17     6     7    1
    18     1    22    1
    19    22    23   ar
    20    23    24   ar
    21    24    25   ar
    22    25    26   ar
    23    26    27   ar
    24    12    13   ar
    25    13    14   ar
    26    14     9   ar
    27     7     2    1
    28    27    22   ar
    29     5     8    1
@<TRIPOS>MOLECULE
*****
 27 29 0 0 0
SMALL
GASTEIGER

@<TRIPOS>ATOM
      1 C         141.3857  141.1250  162.1399 C.2     1  UNL1        0.0099
      2 C         142.7513  141.6043  161.7460 C.2     1  UNL1       -0.0400
      3 C         143.8103  141.7932  162.7915 C.3     1  UNL1        0.0392
      4 C         145.1760  142.2725  162.3976 C.3     1  UNL1        0.0730
      5 N         145.4827  142.5629  160.9583 N.3     1  UNL1       -0.2969
      6 C         144.4238  142.3741  159.9129 C.3     1  UNL1        0.0730
      7 C         143.0580  141.8947  160.3067 C.3     1  UNL1        0.0392
      8 H         146.2649  141.9626  160.6970 H       1  UNL1        0.1233
      9 C         140.4655  140.2537  166.4578 C.ar    1  UNL1        0.0536
     10 C         140.2336  141.6283  165.9041 C.ar    1  UNL1        0.0045
     11 C         140.5404  141.9187  164.4648 C.ar    1  UNL1        0.0002
     12 C         141.0789  140.8345  163.5792 C.ar    1  UNL1        0.0008
     13 C         141.3108  139.4599  164.1329 C.ar    1  UNL1        0.0002
     14 C         141.0041  139.1695  165.5721 C.ar    1  UNL1        0.0045
     15 N         141.2257  140.1254  168.9388 N.am    1  UNL1       -0.2761
     16 C         140.1588  139.9632  167.8971 C.2     1  UNL1        0.2490
     17 O         138.7851  139.5107  168.2946 O.2     1  UNL1       -0.2699
     18 C         140.7831  140.9623  171.3583 C.3     1  UNL1        0.0233
     19 C         140.9190  139.8349  170.3781 C.3     1  UNL1        0.0938
     20 C         142.5995  140.5779  168.5413 C.3     1  UNL1        0.0938
     21 C         142.9368  142.0395  168.5407 C.3     1  UNL1        0.0233
     22 C         140.3267  140.9361  161.0945 C.ar    1  UNL1        0.0807
     23 C         140.1010  139.5811  160.4919 C.ar    1  UNL1        0.0191
     24 C         139.0420  139.3923  159.4464 C.ar    1  UNL1        0.0031
     25 C         138.2088  140.5583  159.0036 C.ar    1  UNL1        0.0207
     26 C         138.4346  141.9133  159.6062 C.ar    1  UNL1        0.0988
     27 N         139.4935  142.1022  160.6516 N.ar    1  UNL1       -0.2439
@<TRIPOS>BOND
     1    18    19    1
     2    19    15    1
     3    15    20    1
     4    20    21    1
     5    15    16   am
     6    16    17    2
     7    16     9    1
     8     9    10   ar
     9    10    11   ar
    10    11    12   ar
    11    12     1    1
    12     1     2    2
    13     2     3    1
    14     3     4    1
    15     4     5    1
    16     5     6    1
    17     6     7    1
    18     1    22    1
    19    22    23   ar
    20    23    24   ar
    21    24    25   ar
    22    25    26   ar
    23    26    27   ar
    24    12    13   ar
    25    13    14   ar
    26    14     9   ar
    27     7     2    1
    28    27    22   ar
    29     5     8    1
@<TRIPOS>MOLECULE
*****
 27 29 0 0 0
SMALL
GASTEIGER

@<TRIPOS>ATOM
      1 C         141.4935  140.9766  162.3607 C.2     1  UNL1        0.0099
      2 C         142.4665  141.4600  161.3265 C.2     1  UNL1       -0.0400
      3 C         143.7429  142.1243  161.7501 C.3     1  UNL1        0.0392
      4 C         144.7159  142.6077  160.7160 C.3     1  UNL1        0.0730
      5 N         144.4125  142.4269  159.2582 N.3     1  UNL1       -0.2969
      6 C         143.1361  141.7626  158.8345 C.3     1  UNL1        0.0730
      7 C         142.1631  141.2792  159.8687 C.3     1  UNL1        0.0392
      8 H         145.1757  141.8763  158.8647 H       1  UNL1        0.1233
      9 C         142.4037  141.5191  166.7341 C.ar    1  UNL1        0.0536
     10 C         142.9839  140.3557  165.9860 C.ar    1  UNL1        0.0045
     11 C         142.6805  140.1748  164.5282 C.ar    1  UNL1        0.0002
     12 C         141.7969  141.1574  163.8185 C.ar    1  UNL1        0.0008
     13 C         141.2167  142.3209  164.5666 C.ar    1  UNL1        0.0002
     14 C         141.5201  142.5017  166.0244 C.ar    1  UNL1        0.0045
     15 N         141.9744  140.8862  169.2171 N.am    1  UNL1       -0.2761
     16 C         142.7071  141.6999  168.1920 C.2     1  UNL1        0.2490
     17 O         143.7432  142.6945  168.6246 O.2     1  UNL1       -0.2699
     18 C         141.2731  141.7245  171.5741 C.3     1  UNL1        0.0233
     19 C         142.2778  141.0670  170.6749 C.3     1  UNL1        0.0938
     20 C         140.9382  139.8916  168.7844 C.3     1  UNL1        0.0938
     21 C         139.5051  140.3128  168.6479 C.3     1  UNL1        0.0233
     22 C         140.2171  140.3123  161.9370 C.ar    1  UNL1        0.0807
     23 C         140.1596  138.8203  161.7941 C.ar    1  UNL1        0.0191
     24 C         138.8831  138.1560  161.3704 C.ar    1  UNL1        0.0031
     25 C         137.6642  138.9839  161.0897 C.ar    1  UNL1        0.0207
     26 C         137.7216  140.4759  161.2326 C.ar    1  UNL1        0.0988
     27 N         138.9980  141.1402  161.6562 N.ar    1  UNL1       -0.2439
@<TRIPOS>BOND
     1    18    19    1
     2    19    15    1
     3    15    20    1
     4    20    21    1
     5    15    16   am
     6    16    17    2
     7    16     9    1
     8     9    10   ar
     9    10    11   ar
    10    11    12   ar
    11    12     1    1
    12     1     2    2
    13     2     3    1
    14     3     4    1
    15     4     5    1
    16     5     6    1
    17     6     7    1
    18     1    22    1
    19    22    23   ar
    20    23    24   ar
    21    24    25   ar
    22    25    26   ar
    23    26    27   ar
    24    12    13   ar
    25    13    14   ar
    26    14     9   ar
    27     7     2    1
    28    27    22   ar
    29     5     8    1
@<TRIPOS>MOLECULE
*****
 27 29 0 0 0
SMALL
GASTEIGER

@<TRIPOS>ATOM
      1 C         141.4484  141.9400  162.2336 C.2     1  UNL1        0.0099
      2 C         141.1242  143.0992  161.3386 C.2     1  UNL1       -0.0400
      3 C         140.5690  144.3648  161.9219 C.3     1  UNL1        0.0392
      4 C         140.2448  145.5240  161.0270 C.3     1  UNL1        0.0730
      5 N         140.4758  145.4178  159.5487 N.3     1  UNL1       -0.2969
      6 C         141.0310  144.1524  158.9654 C.3     1  UNL1        0.0730
      7 C         141.3553  142.9930  159.8603 C.3     1  UNL1        0.0392
      8 H         141.1216  146.1661  159.2971 H       1  UNL1        0.1233
      9 C         140.7554  142.2586  166.6685 C.ar    1  UNL1        0.0536
     10 C         142.1097  142.5584  166.0976 C.ar    1  UNL1        0.0045
     11 C         142.3407  142.4522  164.6193 C.ar    1  UNL1        0.0002
     12 C         141.2174  142.0462  163.7119 C.ar    1  UNL1        0.0008
     13 C         139.8631  141.7465  164.2828 C.ar    1  UNL1        0.0002
     14 C         139.6321  141.8527  165.7611 C.ar    1  UNL1        0.0045
     15 N         140.7240  141.1655  169.0251 N.am    1  UNL1       -0.2761
     16 C         140.5244  142.3648  168.1468 C.2     1  UNL1        0.2490
     17 O         140.0937  143.6704  168.7467 O.2     1  UNL1       -0.2699
     18 C         141.5901  141.7631  171.4006 C.3     1  UNL1        0.0233
     19 C         140.4930  141.2717  170.5034 C.3     1  UNL1        0.0938
     20 C         141.1546  139.8598  168.4252 C.3     1  UNL1        0.0938
     21 C         142.6098  139.4989  168.3800 C.3     1  UNL1        0.0233
     22 C         142.0037  140.6745  161.6503 C.ar    1  UNL1        0.0807
     23 C         143.4879  140.4697  161.5787 C.ar    1  UNL1        0.0191
     24 C         144.0431  139.2042  160.9954 C.ar    1  UNL1        0.0031
     25 C         143.1141  138.1436  160.4836 C.ar    1  UNL1        0.0207
     26 C         141.6298  138.3484  160.5551 C.ar    1  UNL1        0.0988
     27 N         141.0746  139.6138  161.1384 N.ar    1  UNL1       -0.2439
@<TRIPOS>BOND
     1    18    19    1
     2    19    15    1
     3    15    20    1
     4    20    21    1
     5    15    16   am
     6    16    17    2
     7    16     9    1
     8     9    10   ar
     9    10    11   ar
    10    11    12   ar
    11    12     1    1
    12     1     2    2
    13     2     3    1
    14     3     4    1
    15     4     5    1
    16     5     6    1
    17     6     7    1
    18     1    22    1
    19    22    23   ar
    20    23    24   ar
    21    24    25   ar
    22    25    26   ar
    23    26    27   ar
    24    12    13   ar
    25    13    14   ar
    26    14     9   ar
    27     7     2    1
    28    27    22   ar
    29     5     8    1
