@<TRIPOS>MOLECULE
*****
 35 39 0 0 0
SMALL
GASTEIGER

@<TRIPOS>ATOM
      1 N         138.5876  139.2536  164.9120 N.3     1  UNL1       -0.2704
      2 C         138.0074  140.4148  164.1604 C.3     1  UNL1        0.0722
      3 C         138.0668  140.4433  162.6619 C.3     1  UNL1        0.0191
      4 C         138.7064  139.3106  161.9149 C.3     1  UNL1        0.0226
      5 C         139.2866  138.1494  162.6665 C.3     1  UNL1        0.0191
      6 C         139.2272  138.1209  164.1650 C.3     1  UNL1        0.0722
      7 C         139.3110  138.2559  161.0363 C.3     1  UNL1        0.0232
      8 C         139.1498  138.6923  159.6101 C.3     1  UNL1        0.0922
      9 N         138.4455  140.0168  159.6075 N.pl3   1  UNL1       -0.2932
     10 C         138.1715  140.3989  161.0319 C.3     1  UNL1        0.0922
     11 C         138.0796  140.8183  158.3936 C.ar    1  UNL1        0.1318
     12 C         138.7868  142.1095  158.1063 C.ar    1  UNL1        0.0356
     13 C         138.4208  142.9110  156.8924 C.ar    1  UNL1        0.0228
     14 C         137.3477  142.4214  155.9658 C.ar    1  UNL1        0.1249
     15 C         136.6405  141.1301  156.2531 C.ar    1  UNL1        0.1186
     16 N         137.0065  140.3286  157.4670 N.ar    1  UNL1       -0.2278
     17 S         136.9818  143.2229  154.7518 S.O2    1  UNL1        0.0119
     18 C         136.6158  144.0245  153.5379 C.3     1  UNL1        0.1816
     19 O         136.9416  141.9661  153.9340 O.2     1  UNL1       -0.1685
     20 O         137.0219  144.4797  155.5696 O.2     1  UNL1       -0.1685
     21 C         138.5283  139.2250  166.4106 C.3     1  UNL1        0.1063
     22 C         139.6802  139.7475  167.2169 C.3     1  UNL1        0.1483
     23 O         139.5732  139.8312  168.7107 O.3     1  UNL1       -0.3786
     24 H         140.3988  140.1877  169.0745 H       1  UNL1        0.2108
     25 C         140.0046  142.6046  166.3614 C.3     1  UNL1        0.0306
     26 C         141.1013  141.6148  166.1016 C.ar    1  UNL1       -0.0238
     27 C         140.9391  140.1863  166.5293 C.ar    1  UNL1        0.0015
     28 C         142.0358  139.1965  166.2695 C.ar    1  UNL1       -0.0020
     29 C         143.2947  139.6352  165.5820 C.ar    1  UNL1        0.0060
     30 C         143.4569  141.0637  165.1543 C.ar    1  UNL1        0.0748
     31 C         142.3602  142.0535  165.4141 C.ar    1  UNL1        0.0233
     32 C         142.8016  143.3847  164.8820 C.3     1  UNL1        0.2352
     33 O         144.1711  143.2176  164.2934 O.3     1  UNL1       -0.4404
     34 C         144.5761  141.7831  164.4617 C.2     1  UNL1        0.3413
     35 O         145.8726  141.1749  164.0156 O.2     1  UNL1       -0.2449
@<TRIPOS>BOND
     1    25    26    1
     2    26    27   ar
     3    27    22    1
     4    22    23    1
     5    22    21    1
     6    21     1    1
     7     1     2    1
     8     2     3    1
     9     3     4    1
    10     4     5    1
    11     5     6    1
    12     4     7    1
    13     7     8    1
    14     8     9    1
    15     9    11    1
    16    11    12   ar
    17    12    13   ar
    18    13    14   ar
    19    14    17    1
    20    17    18    1
    21    17    19    2
    22    17    20    2
    23    14    15   ar
    24    15    16   ar
    25     9    10    1
    26    27    28   ar
    27    28    29   ar
    28    29    30   ar
    29    30    31   ar
    30    31    32    1
    31    32    33    1
    32    33    34    1
    33    34    35    2
    34    31    26   ar
    35     6     1    1
    36    16    11   ar
    37    34    30    1
    38    10     4    1
    39    23    24    1
@<TRIPOS>MOLECULE
*****
 35 39 0 0 0
SMALL
GASTEIGER

@<TRIPOS>ATOM
      1 N         143.3865  139.8525  163.4966 N.3     1  UNL1       -0.2704
      2 C         142.9197  138.4897  163.0785 C.3     1  UNL1        0.0722
      3 C         142.8483  138.1354  161.6227 C.3     1  UNL1        0.0191
      4 C         143.2438  139.1439  160.5851 C.3     1  UNL1        0.0226
      5 C         143.7105  140.5066  161.0032 C.3     1  UNL1        0.0191
      6 C         143.7819  140.8610  162.4590 C.3     1  UNL1        0.0722
      7 C         143.6045  140.0432  159.4400 C.3     1  UNL1        0.0232
      8 C         143.3828  139.2831  158.1659 C.3     1  UNL1        0.0922
      9 N         142.8850  137.9140  158.5236 N.pl3   1  UNL1       -0.2932
     10 C         142.7991  137.8279  160.0187 C.3     1  UNL1        0.0922
     11 C         142.5347  136.8227  157.5561 C.ar    1  UNL1        0.1318
     12 C         141.4023  137.0113  156.5906 C.ar    1  UNL1        0.0356
     13 C         141.0520  135.9199  155.6231 C.ar    1  UNL1        0.0228
     14 C         141.8340  134.6398  155.6211 C.ar    1  UNL1        0.1249
     15 C         142.9664  134.4512  156.5866 C.ar    1  UNL1        0.1186
     16 N         143.3166  135.5426  157.5541 N.ar    1  UNL1       -0.2278
     17 S         141.4836  133.5484  154.6535 S.O2    1  UNL1        0.0119
     18 C         141.1333  132.4570  153.6860 C.3     1  UNL1        0.1816
     19 O         141.6080  134.5175  153.5153 O.2     1  UNL1       -0.1685
     20 O         141.3592  132.5794  155.7916 O.2     1  UNL1       -0.1685
     21 C         143.4579  140.2069  164.9525 C.3     1  UNL1        0.1063
     22 C         142.5776  141.2883  165.5052 C.3     1  UNL1        0.1483
     23 O         142.6003  142.6587  164.8956 O.3     1  UNL1       -0.3786
     24 H         141.9775  143.2330  165.3679 H       1  UNL1        0.2108
     25 C         143.2847  142.2961  168.2410 C.3     1  UNL1        0.0306
     26 C         142.0280  141.5033  168.0354 C.ar    1  UNL1       -0.0238
     27 C         141.6745  140.9994  166.6675 C.ar    1  UNL1        0.0015
     28 C         140.4178  140.2066  166.4619 C.ar    1  UNL1       -0.0020
     29 C         139.5147  139.9177  167.6242 C.ar    1  UNL1        0.0060
     30 C         139.8683  140.4216  168.9920 C.ar    1  UNL1        0.0748
     31 C         141.1249  141.2144  169.1976 C.ar    1  UNL1        0.0233
     32 C         141.2115  141.5774  170.6505 C.3     1  UNL1        0.2352
     33 O         140.0083  141.0090  171.3428 O.3     1  UNL1       -0.4404
     34 C         139.1782  140.2946  170.3178 C.2     1  UNL1        0.3413
     35 O         137.8850  139.5790  170.5737 O.2     1  UNL1       -0.2449
@<TRIPOS>BOND
     1    25    26    1
     2    26    27   ar
     3    27    22    1
     4    22    23    1
     5    22    21    1
     6    21     1    1
     7     1     2    1
     8     2     3    1
     9     3     4    1
    10     4     5    1
    11     5     6    1
    12     4     7    1
    13     7     8    1
    14     8     9    1
    15     9    11    1
    16    11    12   ar
    17    12    13   ar
    18    13    14   ar
    19    14    17    1
    20    17    18    1
    21    17    19    2
    22    17    20    2
    23    14    15   ar
    24    15    16   ar
    25     9    10    1
    26    27    28   ar
    27    28    29   ar
    28    29    30   ar
    29    30    31   ar
    30    31    32    1
    31    32    33    1
    32    33    34    1
    33    34    35    2
    34    31    26   ar
    35     6     1    1
    36    16    11   ar
    37    34    30    1
    38    10     4    1
    39    23    24    1
@<TRIPOS>MOLECULE
*****
 35 39 0 0 0
SMALL
GASTEIGER

@<TRIPOS>ATOM
      1 N         144.5373  141.8824  162.6656 N.3     1  UNL1       -0.2704
      2 C         144.2698  140.4331  162.3867 C.3     1  UNL1        0.0722
      3 C         143.9457  139.9850  160.9924 C.3     1  UNL1        0.0191
      4 C         143.8892  140.9863  159.8769 C.3     1  UNL1        0.0226
      5 C         144.1567  142.4356  160.1558 C.3     1  UNL1        0.0191
      6 C         144.4808  142.8837  161.5501 C.3     1  UNL1        0.0722
      7 C         143.7972  141.8676  158.6666 C.3     1  UNL1        0.0232
      8 C         143.4513  141.0042  157.4897 C.3     1  UNL1        0.0922
      9 N         143.3295  139.5893  157.9727 N.pl3   1  UNL1       -0.2932
     10 C         143.6001  139.5782  159.4481 C.3     1  UNL1        0.0922
     11 C         142.9957  138.3952  157.1286 C.ar    1  UNL1        0.1318
     12 C         141.6152  137.8101  157.1695 C.ar    1  UNL1        0.0356
     13 C         141.2814  136.6160  156.3253 C.ar    1  UNL1        0.0228
     14 C         142.3281  136.0068  155.4403 C.ar    1  UNL1        0.1249
     15 C         143.7088  136.5919  155.3995 C.ar    1  UNL1        0.1186
     16 N         144.0425  137.7861  156.2436 N.ar    1  UNL1       -0.2278
     17 S         141.9944  134.8127  154.5962 S.O2    1  UNL1        0.0119
     18 C         141.6606  133.6185  153.7520 C.3     1  UNL1        0.1816
     19 O         141.8016  133.9903  155.8358 O.2     1  UNL1       -0.1685
     20 O         142.1871  135.6350  153.3567 O.2     1  UNL1       -0.1685
     21 C         144.8614  142.3305  164.0600 C.3     1  UNL1        0.1063
     22 C         143.7678  142.8137  164.9657 C.3     1  UNL1        0.1483
     23 O         144.0993  143.3187  166.3387 O.3     1  UNL1       -0.3786
     24 H         143.2841  143.5899  166.7890 H       1  UNL1        0.2108
     25 C         142.5434  145.2772  163.7691 C.3     1  UNL1        0.0306
     26 C         141.7303  144.0235  163.9003 C.ar    1  UNL1       -0.0238
     27 C         142.3425  142.7918  164.4986 C.ar    1  UNL1        0.0015
     28 C         141.5294  141.5381  164.6297 C.ar    1  UNL1       -0.0020
     29 C         140.1042  141.5161  164.1626 C.ar    1  UNL1        0.0060
     30 C         139.4921  142.7479  163.5643 C.ar    1  UNL1        0.0748
     31 C         140.3051  144.0016  163.4331 C.ar    1  UNL1        0.0233
     32 C         139.4376  145.0533  162.8076 C.3     1  UNL1        0.2352
     33 O         138.0884  144.4496  162.5521 O.3     1  UNL1       -0.4404
     34 C         138.1221  143.0248  163.0198 C.2     1  UNL1        0.3413
     35 O         136.9854  142.0483  162.9544 O.2     1  UNL1       -0.2449
@<TRIPOS>BOND
     1    25    26    1
     2    26    27   ar
     3    27    22    1
     4    22    23    1
     5    22    21    1
     6    21     1    1
     7     1     2    1
     8     2     3    1
     9     3     4    1
    10     4     5    1
    11     5     6    1
    12     4     7    1
    13     7     8    1
    14     8     9    1
    15     9    11    1
    16    11    12   ar
    17    12    13   ar
    18    13    14   ar
    19    14    17    1
    20    17    18    1
    21    17    19    2
    22    17    20    2
    23    14    15   ar
    24    15    16   ar
    25     9    10    1
    26    27    28   ar
    27    28    29   ar
    28    29    30   ar
    29    30    31   ar
    30    31    32    1
    31    32    33    1
    32    33    34    1
    33    34    35    2
    34    31    26   ar
    35     6     1    1
    36    16    11   ar
    37    34    30    1
    38    10     4    1
    39    23    24    1
@<TRIPOS>MOLECULE
*****
 35 39 0 0 0
SMALL
GASTEIGER

@<TRIPOS>ATOM
      1 N         139.2141  140.3110  161.3191 N.3     1  UNL1       -0.2704
      2 C         140.5963  139.7829  161.0728 C.3     1  UNL1        0.0722
      3 C         141.4691  140.4219  160.0337 C.3     1  UNL1        0.0191
      4 C         140.9598  141.5889  159.2408 C.3     1  UNL1        0.0226
      5 C         139.5777  142.1170  159.4871 C.3     1  UNL1        0.0191
      6 C         138.7048  141.4780  160.5262 C.3     1  UNL1        0.0722
      7 C         140.5894  142.7563  158.3748 C.3     1  UNL1        0.0232
      8 C         141.7571  143.0616  157.4839 C.3     1  UNL1        0.0922
      9 N         142.8491  142.0828  157.7995 N.pl3   1  UNL1       -0.2932
     10 C         142.3565  141.1727  158.8853 C.3     1  UNL1        0.0922
     11 C         144.1971  142.0245  157.1443 C.ar    1  UNL1        0.1318
     12 C         145.3953  142.5973  157.8416 C.ar    1  UNL1        0.0356
     13 C         146.7434  142.5390  157.1864 C.ar    1  UNL1        0.0228
     14 C         146.8933  141.9078  155.8339 C.ar    1  UNL1        0.1249
     15 C         145.6951  141.3350  155.1366 C.ar    1  UNL1        0.1186
     16 N         144.3470  141.3934  155.7919 N.ar    1  UNL1       -0.2278
     17 S         148.2414  141.8495  155.1787 S.O2    1  UNL1        0.0119
     18 C         149.5895  141.7912  154.5235 C.3     1  UNL1        0.1816
     19 O         147.5874  141.5709  153.8578 O.2     1  UNL1       -0.1685
     20 O         148.8954  142.1281  156.4994 O.2     1  UNL1       -0.1685
     21 C         138.3412  139.6720  162.3583 C.3     1  UNL1        0.1063
     22 C         137.7750  140.4994  163.4739 C.3     1  UNL1        0.1483
     23 O         136.6023  141.3995  163.2196 O.3     1  UNL1       -0.3786
     24 H         136.3637  141.8592  164.0398 H       1  UNL1        0.2108
     25 C         139.7083  142.6099  164.3727 C.3     1  UNL1        0.0306
     26 C         139.3480  141.4819  165.2934 C.ar    1  UNL1       -0.0238
     27 C         138.3813  140.4266  164.8440 C.ar    1  UNL1        0.0015
     28 C         138.0210  139.2985  165.7647 C.ar    1  UNL1       -0.0020
     29 C         138.6273  139.2257  167.1347 C.ar    1  UNL1        0.0060
     30 C         139.5940  140.2810  167.5841 C.ar    1  UNL1        0.0748
     31 C         139.9543  141.4090  166.6634 C.ar    1  UNL1        0.0233
     32 C         140.9294  142.2971  167.3780 C.3     1  UNL1        0.2352
     33 O         141.1717  141.7179  168.7403 O.3     1  UNL1       -0.4404
     34 C         140.3464  140.4719  168.8676 C.2     1  UNL1        0.3413
     35 O         140.2843  139.5743  170.0678 O.2     1  UNL1       -0.2449
@<TRIPOS>BOND
     1    25    26    1
     2    26    27   ar
     3    27    22    1
     4    22    23    1
     5    22    21    1
     6    21     1    1
     7     1     2    1
     8     2     3    1
     9     3     4    1
    10     4     5    1
    11     5     6    1
    12     4     7    1
    13     7     8    1
    14     8     9    1
    15     9    11    1
    16    11    12   ar
    17    12    13   ar
    18    13    14   ar
    19    14    17    1
    20    17    18    1
    21    17    19    2
    22    17    20    2
    23    14    15   ar
    24    15    16   ar
    25     9    10    1
    26    27    28   ar
    27    28    29   ar
    28    29    30   ar
    29    30    31   ar
    30    31    32    1
    31    32    33    1
    32    33    34    1
    33    34    35    2
    34    31    26   ar
    35     6     1    1
    36    16    11   ar
    37    34    30    1
    38    10     4    1
    39    23    24    1
@<TRIPOS>MOLECULE
*****
 35 39 0 0 0
SMALL
GASTEIGER

@<TRIPOS>ATOM
      1 N         142.1836  139.0407  165.1775 N.3     1  UNL1       -0.2704
      2 C         141.3882  138.1549  164.2650 C.3     1  UNL1        0.0722
      3 C         141.7531  138.0524  162.8137 C.3     1  UNL1        0.0191
      4 C         142.9133  138.8357  162.2749 C.3     1  UNL1        0.0226
      5 C         143.7087  139.7215  163.1874 C.3     1  UNL1        0.0191
      6 C         143.3438  139.8240  164.6387 C.3     1  UNL1        0.0722
      7 C         144.0412  139.5551  161.5964 C.3     1  UNL1        0.0232
      8 C         144.0393  139.1599  160.1493 C.3     1  UNL1        0.0922
      9 N         142.9102  138.1962  159.9335 N.pl3   1  UNL1       -0.2932
     10 C         142.2143  137.9959  161.2471 C.3     1  UNL1        0.0922
     11 C         142.5417  137.5469  158.6326 C.ar    1  UNL1        0.1318
     12 C         141.3976  138.0832  157.8243 C.ar    1  UNL1        0.0356
     13 C         141.0291  137.4338  156.5233 C.ar    1  UNL1        0.0228
     14 C         141.8047  136.2482  156.0306 C.ar    1  UNL1        0.1249
     15 C         142.9489  135.7119  156.8389 C.ar    1  UNL1        0.1186
     16 N         143.3173  136.3613  158.1399 N.ar    1  UNL1       -0.2278
     17 S         141.4362  135.5989  154.7296 S.O2    1  UNL1        0.0119
     18 C         141.0677  134.9495  153.4286 C.3     1  UNL1        0.1816
     19 O         140.0496  136.1599  154.8423 O.2     1  UNL1       -0.1685
     20 O         142.8227  135.0379  154.6169 O.2     1  UNL1       -0.1685
     21 C         141.8188  139.1432  166.6289 C.3     1  UNL1        0.1063
     22 C         140.7852  140.1348  167.0742 C.3     1  UNL1        0.1483
     23 O         140.2764  140.1055  168.4849 O.3     1  UNL1       -0.3786
     24 H         139.6182  140.8076  168.6059 H       1  UNL1        0.2108
     25 C         138.3230  139.5497  165.4632 C.3     1  UNL1        0.0306
     26 C         139.0293  140.8633  165.3032 C.ar    1  UNL1       -0.0238
     27 C         140.2604  141.1559  166.1087 C.ar    1  UNL1        0.0015
     28 C         140.9667  142.4695  165.9488 C.ar    1  UNL1       -0.0020
     29 C         140.4420  143.4905  164.9834 C.ar    1  UNL1        0.0060
     30 C         139.2109  143.1980  164.1779 C.ar    1  UNL1        0.0748
     31 C         138.5046  141.8844  164.3378 C.ar    1  UNL1        0.0233
     32 C         137.3222  141.8785  163.4148 C.3     1  UNL1        0.2352
     33 O         137.2977  143.1884  162.6844 O.3     1  UNL1       -0.4404
     34 C         138.4650  144.0039  163.1560 C.2     1  UNL1        0.3413
     35 O         138.8235  145.3832  162.6880 O.2     1  UNL1       -0.2449
@<TRIPOS>BOND
     1    25    26    1
     2    26    27   ar
     3    27    22    1
     4    22    23    1
     5    22    21    1
     6    21     1    1
     7     1     2    1
     8     2     3    1
     9     3     4    1
    10     4     5    1
    11     5     6    1
    12     4     7    1
    13     7     8    1
    14     8     9    1
    15     9    11    1
    16    11    12   ar
    17    12    13   ar
    18    13    14   ar
    19    14    17    1
    20    17    18    1
    21    17    19    2
    22    17    20    2
    23    14    15   ar
    24    15    16   ar
    25     9    10    1
    26    27    28   ar
    27    28    29   ar
    28    29    30   ar
    29    30    31   ar
    30    31    32    1
    31    32    33    1
    32    33    34    1
    33    34    35    2
    34    31    26   ar
    35     6     1    1
    36    16    11   ar
    37    34    30    1
    38    10     4    1
    39    23    24    1
@<TRIPOS>MOLECULE
*****
 35 39 0 0 0
SMALL
GASTEIGER

@<TRIPOS>ATOM
      1 N         138.2440  140.4697  163.5546 N.3     1  UNL1       -0.2704
      2 C         138.6068  141.8698  163.1571 C.3     1  UNL1        0.0722
      3 C         138.7087  142.2348  161.7058 C.3     1  UNL1        0.0191
      4 C         138.4478  141.1997  160.6520 C.3     1  UNL1        0.0226
      5 C         138.0850  139.7996  161.0495 C.3     1  UNL1        0.0191
      6 C         137.9830  139.4346  162.5008 C.3     1  UNL1        0.0722
      7 C         138.2164  140.2768  159.4924 C.3     1  UNL1        0.0232
      8 C         138.4246  141.0585  158.2291 C.3     1  UNL1        0.0922
      9 N         138.7847  142.4645  158.6081 N.pl3   1  UNL1       -0.2932
     10 C         138.7991  142.5518  160.1054 C.3     1  UNL1        0.0922
     11 C         139.0788  143.5862  157.6567 C.ar    1  UNL1        0.1318
     12 C         138.3898  143.6407  156.3255 C.ar    1  UNL1        0.0356
     13 C         138.6839  144.7624  155.3740 C.ar    1  UNL1        0.0228
     14 C         139.6671  145.8297  155.7538 C.ar    1  UNL1        0.1249
     15 C         140.3563  145.7752  157.0851 C.ar    1  UNL1        0.1186
     16 N         140.0621  144.6534  158.0365 N.ar    1  UNL1       -0.2278
     17 S         139.9613  146.9514  154.8024 S.O2    1  UNL1        0.0119
     18 C         140.2554  148.0731  153.8510 C.3     1  UNL1        0.1816
     19 O         141.2214  146.2588  154.3754 O.2     1  UNL1       -0.1685
     20 O         138.7012  147.6440  155.2294 O.2     1  UNL1       -0.1685
     21 C         138.1420  140.1046  165.0060 C.3     1  UNL1        0.1063
     22 C         139.3002  139.4485  165.6975 C.3     1  UNL1        0.1483
     23 O         139.8245  138.1344  165.1994 O.3     1  UNL1       -0.3786
     24 H         140.5683  137.8518  165.7541 H       1  UNL1        0.2108
     25 C         141.8266  141.0321  165.3667 C.3     1  UNL1        0.0306
     26 C         141.1973  140.8983  166.7217 C.ar    1  UNL1       -0.0238
     27 C         139.9341  140.1066  166.8871 C.ar    1  UNL1        0.0015
     28 C         139.3048  139.9728  168.2421 C.ar    1  UNL1       -0.0020
     29 C         139.9386  140.6308  169.4317 C.ar    1  UNL1        0.0060
     30 C         141.2018  141.4226  169.2663 C.ar    1  UNL1        0.0748
     31 C         141.8312  141.5563  167.9113 C.ar    1  UNL1        0.0233
     32 C         143.0674  142.3937  168.0550 C.3     1  UNL1        0.2352
     33 O         143.2020  142.7775  169.4988 O.3     1  UNL1       -0.4404
     34 C         142.0491  142.1773  170.2474 C.2     1  UNL1        0.3413
     35 O         141.7890  142.3088  171.7189 O.2     1  UNL1       -0.2449
@<TRIPOS>BOND
     1    25    26    1
     2    26    27   ar
     3    27    22    1
     4    22    23    1
     5    22    21    1
     6    21     1    1
     7     1     2    1
     8     2     3    1
     9     3     4    1
    10     4     5    1
    11     5     6    1
    12     4     7    1
    13     7     8    1
    14     8     9    1
    15     9    11    1
    16    11    12   ar
    17    12    13   ar
    18    13    14   ar
    19    14    17    1
    20    17    18    1
    21    17    19    2
    22    17    20    2
    23    14    15   ar
    24    15    16   ar
    25     9    10    1
    26    27    28   ar
    27    28    29   ar
    28    29    30   ar
    29    30    31   ar
    30    31    32    1
    31    32    33    1
    32    33    34    1
    33    34    35    2
    34    31    26   ar
    35     6     1    1
    36    16    11   ar
    37    34    30    1
    38    10     4    1
    39    23    24    1
@<TRIPOS>MOLECULE
*****
 35 39 0 0 0
SMALL
GASTEIGER

@<TRIPOS>ATOM
      1 N         141.7119  137.8189  157.4178 N.3     1  UNL1       -0.2704
      2 C         142.6647  137.8551  158.5758 C.3     1  UNL1        0.0722
      3 C         142.1689  138.2197  159.9437 C.3     1  UNL1        0.0191
      4 C         140.7204  138.5479  160.1537 C.3     1  UNL1        0.0226
      5 C         139.7676  138.5117  158.9958 C.3     1  UNL1        0.0191
      6 C         140.2634  138.1471  157.6278 C.3     1  UNL1        0.0722
      7 C         139.3074  138.8986  160.5150 C.3     1  UNL1        0.0232
      8 C         139.2643  139.1932  161.9852 C.3     1  UNL1        0.0922
      9 N         140.6507  139.0246  162.5326 N.pl3   1  UNL1       -0.2932
     10 C         141.5506  138.6258  161.4007 C.3     1  UNL1        0.0922
     11 C         141.0645  139.2204  163.9609 C.ar    1  UNL1        0.1318
     12 C         142.2902  138.5345  164.4874 C.ar    1  UNL1        0.0356
     13 C         142.7040  138.7303  165.9159 C.ar    1  UNL1        0.0228
     14 C         141.8922  139.6121  166.8178 C.ar    1  UNL1        0.1249
     15 C         140.6664  140.2981  166.2912 C.ar    1  UNL1        0.1186
     16 N         140.2527  140.1022  164.8628 N.ar    1  UNL1       -0.2278
     17 S         142.3060  139.8079  168.2462 S.O2    1  UNL1        0.0119
     18 C         142.7198  140.0038  169.6747 C.3     1  UNL1        0.1816
     19 O         141.3334  140.9430  168.3724 O.2     1  UNL1       -0.1685
     20 O         143.2785  138.6730  168.1201 O.2     1  UNL1       -0.1685
     21 C         142.2077  137.4543  156.0498 C.3     1  UNL1        0.1063
     22 C         143.4012  136.5585  155.8987 C.3     1  UNL1        0.1483
     23 O         144.7587  137.1512  155.6626 O.3     1  UNL1       -0.3786
     24 H         145.4138  136.4397  155.5884 H       1  UNL1        0.2108
     25 C         142.2319  135.0438  153.5881 C.3     1  UNL1        0.0306
     26 C         142.6526  134.3126  154.8284 C.ar    1  UNL1       -0.0238
     27 C         143.2373  135.0699  155.9836 C.ar    1  UNL1        0.0015
     28 C         143.6580  134.3386  157.2239 C.ar    1  UNL1       -0.0020
     29 C         143.4940  132.8500  157.3089 C.ar    1  UNL1        0.0060
     30 C         142.9094  132.0927  156.1536 C.ar    1  UNL1        0.0748
     31 C         142.4887  132.8240  154.9134 C.ar    1  UNL1        0.0233
     32 C         141.9477  131.8167  153.9425 C.3     1  UNL1        0.2352
     33 O         142.0340  130.4630  154.5826 O.3     1  UNL1       -0.4404
     34 C         142.6284  130.6336  155.9492 C.2     1  UNL1        0.3413
     35 O         142.8949  129.5374  156.9378 O.2     1  UNL1       -0.2449
@<TRIPOS>BOND
     1    25    26    1
     2    26    27   ar
     3    27    22    1
     4    22    23    1
     5    22    21    1
     6    21     1    1
     7     1     2    1
     8     2     3    1
     9     3     4    1
    10     4     5    1
    11     5     6    1
    12     4     7    1
    13     7     8    1
    14     8     9    1
    15     9    11    1
    16    11    12   ar
    17    12    13   ar
    18    13    14   ar
    19    14    17    1
    20    17    18    1
    21    17    19    2
    22    17    20    2
    23    14    15   ar
    24    15    16   ar
    25     9    10    1
    26    27    28   ar
    27    28    29   ar
    28    29    30   ar
    29    30    31   ar
    30    31    32    1
    31    32    33    1
    32    33    34    1
    33    34    35    2
    34    31    26   ar
    35     6     1    1
    36    16    11   ar
    37    34    30    1
    38    10     4    1
    39    23    24    1
@<TRIPOS>MOLECULE
*****
 35 39 0 0 0
SMALL
GASTEIGER

@<TRIPOS>ATOM
      1 N         142.7528  143.4508  164.2579 N.3     1  UNL1       -0.2704
      2 C         143.3413  143.2627  162.8911 C.3     1  UNL1        0.0722
      3 C         142.6809  143.8870  161.6978 C.3     1  UNL1        0.0191
      4 C         141.4320  144.6995  161.8714 C.3     1  UNL1        0.0226
      5 C         140.8435  144.8876  163.2382 C.3     1  UNL1        0.0191
      6 C         141.5039  144.2632  164.4315 C.3     1  UNL1        0.0722
      7 C         140.1856  145.5339  161.8894 C.3     1  UNL1        0.0232
      8 C         139.8852  145.9492  160.4796 C.3     1  UNL1        0.0922
      9 N         140.9461  145.3715  159.5903 N.pl3   1  UNL1       -0.2932
     10 C         141.9020  144.5992  160.4504 C.3     1  UNL1        0.0922
     11 C         141.0354  145.5371  158.1022 C.ar    1  UNL1        0.1318
     12 C         142.1431  144.8736  157.3388 C.ar    1  UNL1        0.0356
     13 C         142.2323  145.0392  155.8507 C.ar    1  UNL1        0.0228
     14 C         141.2138  145.8682  155.1258 C.ar    1  UNL1        0.1249
     15 C         140.1060  146.5318  155.8892 C.ar    1  UNL1        0.1186
     16 N         140.0169  146.3661  157.3774 N.ar    1  UNL1       -0.2278
     17 S         141.3031  146.0338  153.6377 S.O2    1  UNL1        0.0119
     18 C         141.3923  146.1994  152.1495 C.3     1  UNL1        0.1816
     19 O         142.1966  144.8316  153.5575 O.2     1  UNL1       -0.1685
     20 O         140.4096  147.2359  153.7179 O.2     1  UNL1       -0.1685
     21 C         143.4132  142.8264  165.4513 C.3     1  UNL1        0.1063
     22 C         143.0986  141.4085  165.8263 C.3     1  UNL1        0.1483
     23 O         143.8023  140.2768  165.1378 O.3     1  UNL1       -0.3786
     24 H         143.4848  139.4330  165.4958 H       1  UNL1        0.2108
     25 C         143.6126  142.2481  168.6602 C.3     1  UNL1        0.0306
     26 C         142.3372  141.5421  168.3067 C.ar    1  UNL1       -0.0238
     27 C         142.0802  141.1223  166.8898 C.ar    1  UNL1        0.0015
     28 C         140.8048  140.4164  166.5363 C.ar    1  UNL1       -0.0020
     29 C         139.7864  140.1302  167.5998 C.ar    1  UNL1        0.0060
     30 C         140.0434  140.5500  169.0167 C.ar    1  UNL1        0.0748
     31 C         141.3188  141.2559  169.3702 C.ar    1  UNL1        0.0233
     32 C         141.2949  141.5474  170.8414 C.3     1  UNL1        0.2352
     33 O         140.0047  141.0216  171.3972 O.3     1  UNL1       -0.4404
     34 C         139.2312  140.4052  170.2694 C.2     1  UNL1        0.3413
     35 O         137.8824  139.7576  170.3758 O.2     1  UNL1       -0.2449
@<TRIPOS>BOND
     1    25    26    1
     2    26    27   ar
     3    27    22    1
     4    22    23    1
     5    22    21    1
     6    21     1    1
     7     1     2    1
     8     2     3    1
     9     3     4    1
    10     4     5    1
    11     5     6    1
    12     4     7    1
    13     7     8    1
    14     8     9    1
    15     9    11    1
    16    11    12   ar
    17    12    13   ar
    18    13    14   ar
    19    14    17    1
    20    17    18    1
    21    17    19    2
    22    17    20    2
    23    14    15   ar
    24    15    16   ar
    25     9    10    1
    26    27    28   ar
    27    28    29   ar
    28    29    30   ar
    29    30    31   ar
    30    31    32    1
    31    32    33    1
    32    33    34    1
    33    34    35    2
    34    31    26   ar
    35     6     1    1
    36    16    11   ar
    37    34    30    1
    38    10     4    1
    39    23    24    1
@<TRIPOS>MOLECULE
*****
 35 39 0 0 0
SMALL
GASTEIGER

@<TRIPOS>ATOM
      1 N         143.0773  140.3130  161.1239 N.3     1  UNL1       -0.2704
      2 C         142.8338  138.8379  161.2453 C.3     1  UNL1        0.0722
      3 C         142.7679  137.9848  160.0133 C.3     1  UNL1        0.0191
      4 C         142.9455  138.6067  158.6600 C.3     1  UNL1        0.0226
      5 C         143.1889  140.0818  158.5385 C.3     1  UNL1        0.0191
      6 C         143.2548  140.9350  159.7705 C.3     1  UNL1        0.0722
      7 C         143.1034  139.0848  157.2469 C.3     1  UNL1        0.0232
      8 C         142.9656  137.8992  156.3383 C.3     1  UNL1        0.0922
      9 N         142.7225  136.6884  157.1899 N.pl3   1  UNL1       -0.2932
     10 C         142.7101  137.1257  158.6246 C.3     1  UNL1        0.0922
     11 C         142.5263  135.2866  156.6937 C.ar    1  UNL1        0.1318
     12 C         141.6439  135.0269  155.5089 C.ar    1  UNL1        0.0356
     13 C         141.4477  133.6250  155.0127 C.ar    1  UNL1        0.0228
     14 C         142.1339  132.4827  155.7013 C.ar    1  UNL1        0.1249
     15 C         143.0165  132.7423  156.8862 C.ar    1  UNL1        0.1186
     16 N         143.2126  134.1443  157.3823 N.ar    1  UNL1       -0.2278
     17 S         141.9378  131.0808  155.2052 S.O2    1  UNL1        0.0119
     18 C         141.7416  129.6789  154.7090 C.3     1  UNL1        0.1816
     19 O         143.3044  130.7135  155.7024 O.2     1  UNL1       -0.1685
     20 O         140.5711  131.4481  154.7079 O.2     1  UNL1       -0.1685
     21 C         143.1432  141.1662  162.3559 C.3     1  UNL1        0.1063
     22 C         144.1503  140.8629  163.4253 C.3     1  UNL1        0.1483
     23 O         145.6122  140.8298  163.0911 O.3     1  UNL1       -0.3786
     24 H         146.1218  140.6207  163.8896 H       1  UNL1        0.2108
     25 C         143.6182  143.1471  165.2959 C.3     1  UNL1        0.0306
     26 C         143.4295  141.7346  165.7642 C.ar    1  UNL1       -0.0238
     27 C         143.6955  140.5925  164.8289 C.ar    1  UNL1        0.0015
     28 C         143.5068  139.1801  165.2972 C.ar    1  UNL1       -0.0020
     29 C         143.0520  138.9097  166.7008 C.ar    1  UNL1        0.0060
     30 C         142.7860  140.0518  167.6360 C.ar    1  UNL1        0.0748
     31 C         142.9747  141.4643  167.1677 C.ar    1  UNL1        0.0233
     32 C         142.6372  142.3794  168.3073 C.3     1  UNL1        0.2352
     33 O         142.2399  141.5326  169.4799 O.3     1  UNL1       -0.4404
     34 C         142.3318  140.0940  169.0650 C.2     1  UNL1        0.3413
     35 O         142.0238  138.9062  169.9277 O.2     1  UNL1       -0.2449
@<TRIPOS>BOND
     1    25    26    1
     2    26    27   ar
     3    27    22    1
     4    22    23    1
     5    22    21    1
     6    21     1    1
     7     1     2    1
     8     2     3    1
     9     3     4    1
    10     4     5    1
    11     5     6    1
    12     4     7    1
    13     7     8    1
    14     8     9    1
    15     9    11    1
    16    11    12   ar
    17    12    13   ar
    18    13    14   ar
    19    14    17    1
    20    17    18    1
    21    17    19    2
    22    17    20    2
    23    14    15   ar
    24    15    16   ar
    25     9    10    1
    26    27    28   ar
    27    28    29   ar
    28    29    30   ar
    29    30    31   ar
    30    31    32    1
    31    32    33    1
    32    33    34    1
    33    34    35    2
    34    31    26   ar
    35     6     1    1
    36    16    11   ar
    37    34    30    1
    38    10     4    1
    39    23    24    1
