@<TRIPOS>MOLECULE
*****
 30 32 0 0 0
SMALL
GASTEIGER

@<TRIPOS>ATOM
      1 C         141.9820  141.2997  166.6117 C.2     1  UNL1        0.0618
      2 C         142.6876  142.2289  167.5543 C.2     1  UNL1        0.1501
      3 F         143.9343  142.9382  167.1152 F       1  UNL1       -0.2032
      4 C         142.1467  142.4488  168.9359 C.2     1  UNL1        0.0363
      5 C         140.9000  141.7395  169.3750 C.2     1  UNL1        0.0696
      6 C         140.1944  140.8103  168.4323 C.2     1  UNL1        0.0718
      7 N         138.9552  139.9785  168.5828 N.2     1  UNL1       -0.2538
      8 C         138.7304  139.2445  167.2941 C.2     1  UNL1        0.0518
      9 C         137.6032  138.2985  167.0034 C.3     1  UNL1        0.0514
     10 C         139.8306  139.6226  166.3472 C.2     1  UNL1       -0.0198
     11 C         139.9968  139.1211  164.9434 C.3     1  UNL1        0.0283
     12 C         140.7354  140.5903  167.0507 C.3     1  UNL1        0.0976
     13 C         142.4725  141.5991  162.6849 C.3     1  UNL1        0.0922
     14 C         143.6050  140.6400  162.4667 C.3     1  UNL1        0.0231
     15 C         144.1965  139.9008  163.6302 C.3     1  UNL1        0.0232
     16 C         143.6555  140.1206  165.0119 C.3     1  UNL1        0.0907
     17 N         142.5230  141.0797  165.2300 N.pl3   1  UNL1       -0.3069
     18 C         141.9315  141.8190  164.0665 C.3     1  UNL1        0.1101
     19 C         142.3698  143.7149  161.1806 C.2     1  UNL1        0.2891
     20 O         143.4501  144.3523  162.0033 O.2     1  UNL1       -0.2607
     21 N         141.8810  142.3383  161.5214 N.am    1  UNL1       -0.2942
     22 H         141.1720  141.9200  160.9814 H       1  UNL1        0.1503
     23 C         140.5955  145.9325  157.6900 C.3     1  UNL1        0.0905
     24 C         141.1870  145.1933  158.8535 C.1     1  UNL1       -0.0810
     25 C         141.7784  144.4541  160.0171 C.1     1  UNL1       -0.0073
     26 C         140.3590  141.9595  170.7567 C.2     1  UNL1        0.2440
     27 N         139.5029  143.1569  171.0451 N.am    1  UNL1       -0.3253
     28 O         140.6743  140.9820  171.8499 O.2     1  UNL1       -0.2703
     29 H         139.2961  143.7985  170.3275 H       1  UNL1        0.1453
     30 H         139.1479  143.3013  171.9519 H       1  UNL1        0.1453
@<TRIPOS>BOND
     1    23    24    1
     2    24    25    3
     3    25    19    1
     4    19    20    2
     5    19    21   am
     6    13    21    1
     7    13    14    1
     8    14    15    1
     9    15    16    1
    10    16    17    1
    11    17     1    1
    12     1     2    2
    13     2     3    1
    14     2     4    1
    15     4     5    2
    16     5    26    1
    17    26    27   am
    18    26    28    2
    19     5     6    1
    20     6     7    2
    21     7     8    1
    22     8     9    1
    23     8    10    2
    24    10    11    1
    25    10    12    1
    26    17    18    1
    27    18    13    1
    28    12     1    1
    29    12     6    1
    30    21    22    1
    31    27    29    1
    32    27    30    1
@<TRIPOS>MOLECULE
*****
 30 32 0 0 0
SMALL
GASTEIGER

@<TRIPOS>ATOM
      1 C         141.9174  141.8925  166.3730 C.2     1  UNL1        0.0618
      2 C         143.0812  142.3545  167.1989 C.2     1  UNL1        0.1501
      3 F         144.1240  143.2462  166.5927 F       1  UNL1       -0.2032
      4 C         143.2021  141.9247  168.6308 C.2     1  UNL1        0.0363
      5 C         142.1593  141.0330  169.2370 C.2     1  UNL1        0.0696
      6 C         140.9955  140.5711  168.4111 C.2     1  UNL1        0.0718
      7 N         139.8212  139.6950  168.7329 N.2     1  UNL1       -0.2538
      8 C         138.9746  139.5833  167.4998 C.2     1  UNL1        0.0518
      9 C         137.7005  138.8018  167.3728 C.3     1  UNL1        0.0514
     10 C         139.6255  140.3903  166.4158 C.2     1  UNL1       -0.0198
     11 C         139.1167  140.5575  165.0147 C.3     1  UNL1        0.0283
     12 C         140.8745  141.0008  166.9790 C.3     1  UNL1        0.0976
     13 C         142.0861  141.8188  162.4086 C.3     1  UNL1        0.0922
     14 C         141.5546  143.1818  162.0768 C.3     1  UNL1        0.0231
     15 C         141.1440  144.1149  163.1771 C.3     1  UNL1        0.0232
     16 C         141.2649  143.6852  164.6092 C.3     1  UNL1        0.0907
     17 N         141.7964  142.3223  164.9409 N.pl3   1  UNL1       -0.3069
     18 C         142.2071  141.3891  163.8406 C.3     1  UNL1        0.1101
     19 C         141.5268  139.8665  160.7883 C.2     1  UNL1        0.2891
     20 O         140.1463  139.7804  161.3685 O.2     1  UNL1       -0.2607
     21 N         142.4967  140.8857  161.3083 N.am    1  UNL1       -0.2942
     22 H         143.4028  140.9423  160.9274 H       1  UNL1        0.1503
     23 C         142.7587  137.0672  157.4873 C.3     1  UNL1        0.0905
     24 C         142.3481  138.0003  158.5876 C.1     1  UNL1       -0.0810
     25 C         141.9374  138.9334  159.6879 C.1     1  UNL1       -0.0073
     26 C         142.2803  140.6033  170.6691 C.2     1  UNL1        0.2440
     27 N         143.3612  139.6462  171.0761 N.am    1  UNL1       -0.3253
     28 O         141.3204  141.1307  171.6940 O.2     1  UNL1       -0.2703
     29 H         143.9911  139.3001  170.4034 H       1  UNL1        0.1453
     30 H         143.4406  139.3642  172.0160 H       1  UNL1        0.1453
@<TRIPOS>BOND
     1    23    24    1
     2    24    25    3
     3    25    19    1
     4    19    20    2
     5    19    21   am
     6    13    21    1
     7    13    14    1
     8    14    15    1
     9    15    16    1
    10    16    17    1
    11    17     1    1
    12     1     2    2
    13     2     3    1
    14     2     4    1
    15     4     5    2
    16     5    26    1
    17    26    27   am
    18    26    28    2
    19     5     6    1
    20     6     7    2
    21     7     8    1
    22     8     9    1
    23     8    10    2
    24    10    11    1
    25    10    12    1
    26    17    18    1
    27    18    13    1
    28    12     1    1
    29    12     6    1
    30    21    22    1
    31    27    29    1
    32    27    30    1
@<TRIPOS>MOLECULE
*****
 30 32 0 0 0
SMALL
GASTEIGER

@<TRIPOS>ATOM
      1 C         141.6437  141.9990  166.2083 C.2     1  UNL1        0.0618
      2 C         142.9082  142.2978  166.9578 C.2     1  UNL1        0.1501
      3 F         143.8706  143.3191  166.4278 F       1  UNL1       -0.2032
      4 C         143.2102  141.5755  168.2372 C.2     1  UNL1        0.0363
      5 C         142.2478  140.5542  168.7672 C.2     1  UNL1        0.0696
      6 C         140.9833  140.2554  168.0177 C.2     1  UNL1        0.0718
      7 N         139.8539  139.3073  168.2925 N.2     1  UNL1       -0.2538
      8 C         138.8538  139.4438  167.1830 C.2     1  UNL1        0.0518
      9 C         137.5681  138.6817  167.0562 C.3     1  UNL1        0.0514
     10 C         139.3651  140.4762  166.2223 C.2     1  UNL1       -0.0198
     11 C         138.6805  140.9277  164.9664 C.3     1  UNL1        0.0283
     12 C         140.6812  140.9778  166.7383 C.3     1  UNL1        0.0976
     13 C         141.6497  142.9752  162.3617 C.3     1  UNL1        0.0922
     14 C         140.7376  144.1661  162.3699 C.3     1  UNL1        0.0231
     15 C         140.1275  144.6345  163.6577 C.3     1  UNL1        0.0232
     16 C         140.4295  143.9122  164.9372 C.3     1  UNL1        0.0907
     17 N         141.3416  142.7214  164.9289 N.pl3   1  UNL1       -0.3069
     18 C         141.9517  142.2529  163.6410 C.3     1  UNL1        0.1101
     19 C         143.6447  142.9431  160.6977 C.2     1  UNL1        0.2891
     20 O         144.4197  143.8478  161.6093 O.2     1  UNL1       -0.2607
     21 N         142.2597  142.5068  161.0739 N.am    1  UNL1       -0.2942
     22 H         141.7511  141.9131  160.4755 H       1  UNL1        0.1503
     23 C         145.4749  141.5380  156.8342 C.3     1  UNL1        0.0905
     24 C         144.8648  142.0064  158.1220 C.1     1  UNL1       -0.0810
     25 C         144.2548  142.4747  159.4099 C.1     1  UNL1       -0.0073
     26 C         142.5499  139.8319  170.0466 C.2     1  UNL1        0.2440
     27 N         142.5010  140.5676  171.3529 N.am    1  UNL1       -0.3253
     28 O         142.9010  138.3738  170.0198 O.2     1  UNL1       -0.2703
     29 H         142.2706  141.5246  171.3704 H       1  UNL1        0.1453
     30 H         142.6993  140.0935  172.1926 H       1  UNL1        0.1453
@<TRIPOS>BOND
     1    23    24    1
     2    24    25    3
     3    25    19    1
     4    19    20    2
     5    19    21   am
     6    13    21    1
     7    13    14    1
     8    14    15    1
     9    15    16    1
    10    16    17    1
    11    17     1    1
    12     1     2    2
    13     2     3    1
    14     2     4    1
    15     4     5    2
    16     5    26    1
    17    26    27   am
    18    26    28    2
    19     5     6    1
    20     6     7    2
    21     7     8    1
    22     8     9    1
    23     8    10    2
    24    10    11    1
    25    10    12    1
    26    17    18    1
    27    18    13    1
    28    12     1    1
    29    12     6    1
    30    21    22    1
    31    27    29    1
    32    27    30    1
@<TRIPOS>MOLECULE
*****
 30 32 0 0 0
SMALL
GASTEIGER

@<TRIPOS>ATOM
      1 C         140.1060  140.6607  166.3085 C.2     1  UNL1        0.0618
      2 C         139.4718  139.9681  167.4782 C.2     1  UNL1        0.1501
      3 F         138.1844  139.2194  167.2985 F       1  UNL1       -0.2032
      4 C         140.1248  140.0242  168.8273 C.2     1  UNL1        0.0363
      5 C         141.4122  140.7729  169.0069 C.2     1  UNL1        0.0696
      6 C         142.0465  141.4654  167.8373 C.2     1  UNL1        0.0718
      7 N         143.3034  142.2741  167.7106 N.2     1  UNL1       -0.2538
      8 C         143.4272  142.7178  166.2831 C.2     1  UNL1        0.0518
      9 C         144.5366  143.5499  165.7115 C.3     1  UNL1        0.0514
     10 C         142.2467  142.1833  165.5275 C.2     1  UNL1       -0.0198
     11 C         141.9685  142.3871  164.0677 C.3     1  UNL1        0.0283
     12 C         141.3934  141.4093  166.4881 C.3     1  UNL1        0.0976
     13 C         139.4002  139.7101  162.5206 C.3     1  UNL1        0.0922
     14 C         138.1468  140.4922  162.2609 C.3     1  UNL1        0.0231
     15 C         137.5466  141.3305  163.3504 C.3     1  UNL1        0.0232
     16 C         138.1996  141.3867  164.6996 C.3     1  UNL1        0.0907
     17 N         139.4530  140.6045  164.9593 N.pl3   1  UNL1       -0.3069
     18 C         140.0533  139.7662  163.8698 C.3     1  UNL1        0.1101
     19 C         141.0179  139.4654  160.5024 C.2     1  UNL1        0.2891
     20 O         141.4351  140.8972  160.6632 O.2     1  UNL1       -0.2607
     21 N         140.0005  138.8719  161.4311 N.am    1  UNL1       -0.2942
     22 H         139.7267  137.9321  161.3256 H       1  UNL1        0.1503
     23 C         142.8186  136.9508  157.2337 C.3     1  UNL1        0.0905
     24 C         142.2184  137.7890  158.3233 C.1     1  UNL1       -0.0810
     25 C         141.6181  138.6272  159.4129 C.1     1  UNL1       -0.0073
     26 C         142.0652  140.8290  170.3562 C.2     1  UNL1        0.2440
     27 N         143.5497  140.6520  170.4789 N.am    1  UNL1       -0.3253
     28 O         141.2337  141.0620  171.5827 O.2     1  UNL1       -0.2703
     29 H         144.0954  140.4991  169.6739 H       1  UNL1        0.1453
     30 H         143.9783  140.6888  171.3645 H       1  UNL1        0.1453
@<TRIPOS>BOND
     1    23    24    1
     2    24    25    3
     3    25    19    1
     4    19    20    2
     5    19    21   am
     6    13    21    1
     7    13    14    1
     8    14    15    1
     9    15    16    1
    10    16    17    1
    11    17     1    1
    12     1     2    2
    13     2     3    1
    14     2     4    1
    15     4     5    2
    16     5    26    1
    17    26    27   am
    18    26    28    2
    19     5     6    1
    20     6     7    2
    21     7     8    1
    22     8     9    1
    23     8    10    2
    24    10    11    1
    25    10    12    1
    26    17    18    1
    27    18    13    1
    28    12     1    1
    29    12     6    1
    30    21    22    1
    31    27    29    1
    32    27    30    1
@<TRIPOS>MOLECULE
*****
 30 32 0 0 0
SMALL
GASTEIGER

@<TRIPOS>ATOM
      1 C         141.0941  140.5015  165.5786 C.2     1  UNL1        0.0618
      2 C         141.8880  141.6459  166.1355 C.2     1  UNL1        0.1501
      3 F         143.0089  142.2406  165.3355 F       1  UNL1       -0.2032
      4 C         141.5610  142.1955  167.4922 C.2     1  UNL1        0.0363
      5 C         140.4401  141.6008  168.2922 C.2     1  UNL1        0.0696
      6 C         139.6462  140.4565  167.7353 C.2     1  UNL1        0.0718
      7 N         138.4937  139.6714  168.2881 N.2     1  UNL1       -0.2538
      8 C         138.1085  138.6366  167.2729 C.2     1  UNL1        0.0518
      9 C         137.0030  137.6325  167.4132 C.3     1  UNL1        0.0514
     10 C         139.0229  138.7820  166.0927 C.2     1  UNL1       -0.0198
     11 C         138.9922  137.9489  164.8457 C.3     1  UNL1        0.0283
     12 C         139.9732  139.9068  166.3785 C.3     1  UNL1        0.0976
     13 C         141.0336  139.9223  161.6530 C.3     1  UNL1        0.0922
     14 C         142.0752  138.8525  161.5081 C.3     1  UNL1        0.0231
     15 C         142.7897  138.3325  162.7202 C.3     1  UNL1        0.0232
     16 C         142.4627  138.8821  164.0770 C.3     1  UNL1        0.0907
     17 N         141.4212  139.9518  164.2218 N.pl3   1  UNL1       -0.3069
     18 C         140.7066  140.4719  163.0097 C.3     1  UNL1        0.1101
     19 C         138.9904  139.8669  160.0491 C.2     1  UNL1        0.2891
     20 O         138.3762  138.7716  160.8694 O.2     1  UNL1       -0.2607
     21 N         140.3191  140.4423  160.4409 N.am    1  UNL1       -0.2942
     22 H         140.7222  141.1612  159.9025 H       1  UNL1        0.1503
     23 C         136.8470  141.4271  156.4129 C.3     1  UNL1        0.0905
     24 C         137.5615  140.9071  157.6250 C.1     1  UNL1       -0.0810
     25 C         138.2759  140.3870  158.8371 C.1     1  UNL1       -0.0073
     26 C         140.1131  142.1506  169.6491 C.2     1  UNL1        0.2440
     27 N         139.8451  141.2168  170.7919 N.am    1  UNL1       -0.3253
     28 O         140.0541  143.6341  169.8629 O.2     1  UNL1       -0.2703
     29 H         139.8838  140.2432  170.6516 H       1  UNL1        0.1453
     30 H         139.6305  141.5776  171.6824 H       1  UNL1        0.1453
@<TRIPOS>BOND
     1    23    24    1
     2    24    25    3
     3    25    19    1
     4    19    20    2
     5    19    21   am
     6    13    21    1
     7    13    14    1
     8    14    15    1
     9    15    16    1
    10    16    17    1
    11    17     1    1
    12     1     2    2
    13     2     3    1
    14     2     4    1
    15     4     5    2
    16     5    26    1
    17    26    27   am
    18    26    28    2
    19     5     6    1
    20     6     7    2
    21     7     8    1
    22     8     9    1
    23     8    10    2
    24    10    11    1
    25    10    12    1
    26    17    18    1
    27    18    13    1
    28    12     1    1
    29    12     6    1
    30    21    22    1
    31    27    29    1
    32    27    30    1
@<TRIPOS>MOLECULE
*****
 30 32 0 0 0
SMALL
GASTEIGER

@<TRIPOS>ATOM
      1 C         140.5437  140.0568  166.3344 C.2     1  UNL1        0.0618
      2 C         139.5503  139.8471  167.4387 C.2     1  UNL1        0.1501
      3 F         138.4739  138.8126  167.2927 F       1  UNL1       -0.2032
      4 C         139.6333  140.6718  168.6887 C.2     1  UNL1        0.0363
      5 C         140.7097  141.7064  168.8347 C.2     1  UNL1        0.0696
      6 C         141.7031  141.9160  167.7305 C.2     1  UNL1        0.0718
      7 N         142.8652  142.8541  167.5906 N.2     1  UNL1       -0.2538
      8 C         143.5004  142.6090  166.2541 C.2     1  UNL1        0.0518
      9 C         144.6953  143.3273  165.7008 C.3     1  UNL1        0.0514
     10 C         142.7308  141.5195  165.5678 C.2     1  UNL1       -0.0198
     11 C         143.0212  140.9571  164.2079 C.3     1  UNL1        0.0283
     12 C         141.6200  141.0912  166.4803 C.3     1  UNL1        0.0976
     13 C         139.5528  138.8831  162.6751 C.3     1  UNL1        0.0922
     14 C         140.2945  137.5824  162.5840 C.3     1  UNL1        0.0231
     15 C         141.1192  137.1066  163.7430 C.3     1  UNL1        0.0232
     16 C         141.2023  137.9314  164.9932 C.3     1  UNL1        0.0907
     17 N         140.4606  139.2320  165.0843 N.pl3   1  UNL1       -0.3069
     18 C         139.6358  139.7078  163.9252 C.3     1  UNL1        0.1101
     19 C         139.3990  139.9344  160.3043 C.2     1  UNL1        0.2891
     20 O         140.8947  140.0342  160.2515 O.2     1  UNL1       -0.2607
     21 N         138.7280  139.3589  161.5161 N.am    1  UNL1       -0.2942
     22 H         137.7463  139.2934  161.5507 H       1  UNL1        0.1503
     23 C         136.9246  141.3619  156.8272 C.3     1  UNL1        0.0905
     24 C         137.7494  140.8861  157.9862 C.1     1  UNL1       -0.0810
     25 C         138.5742  140.4102  159.1452 C.1     1  UNL1       -0.0073
     26 C         140.7927  142.5311  170.0849 C.2     1  UNL1        0.2440
     27 N         142.0180  143.3504  170.3629 N.am    1  UNL1       -0.3253
     28 O         139.6503  142.5365  171.0569 O.2     1  UNL1       -0.2703
     29 H         142.7678  143.3469  169.7249 H       1  UNL1        0.1453
     30 H         142.0724  143.8918  171.1835 H       1  UNL1        0.1453
@<TRIPOS>BOND
     1    23    24    1
     2    24    25    3
     3    25    19    1
     4    19    20    2
     5    19    21   am
     6    13    21    1
     7    13    14    1
     8    14    15    1
     9    15    16    1
    10    16    17    1
    11    17     1    1
    12     1     2    2
    13     2     3    1
    14     2     4    1
    15     4     5    2
    16     5    26    1
    17    26    27   am
    18    26    28    2
    19     5     6    1
    20     6     7    2
    21     7     8    1
    22     8     9    1
    23     8    10    2
    24    10    11    1
    25    10    12    1
    26    17    18    1
    27    18    13    1
    28    12     1    1
    29    12     6    1
    30    21    22    1
    31    27    29    1
    32    27    30    1
@<TRIPOS>MOLECULE
*****
 30 32 0 0 0
SMALL
GASTEIGER

@<TRIPOS>ATOM
      1 C         140.6008  142.4220  164.6385 C.2     1  UNL1        0.0618
      2 C         139.9203  143.7586  164.6244 C.2     1  UNL1        0.1501
      3 F         139.5496  144.4251  165.9161 F       1  UNL1       -0.2032
      4 C         139.6104  144.4287  163.3188 C.2     1  UNL1        0.0363
      5 C         139.9811  143.7622  162.0270 C.2     1  UNL1        0.0696
      6 C         140.6616  142.4255  162.0412 C.2     1  UNL1        0.0718
      7 N         141.1431  141.5327  160.9362 N.2     1  UNL1       -0.2538
      8 C         141.7505  140.3108  161.5590 C.2     1  UNL1        0.0518
      9 C         142.3574  139.1542  160.8214 C.3     1  UNL1        0.0514
     10 C         141.6444  140.4484  163.0489 C.2     1  UNL1       -0.0198
     11 C         142.1267  139.4537  164.0627 C.3     1  UNL1        0.0283
     12 C         140.9715  141.7554  163.3469 C.3     1  UNL1        0.0976
     13 C         140.1415  140.3503  167.9922 C.3     1  UNL1        0.0922
     14 C         141.5303  140.4116  168.5558 C.3     1  UNL1        0.0231
     15 C         142.6092  141.1430  167.8135 C.3     1  UNL1        0.0232
     16 C         142.2994  141.8132  166.5078 C.3     1  UNL1        0.0907
     17 N         140.9107  141.7519  165.9443 N.pl3   1  UNL1       -0.3069
     18 C         139.8317  141.0204  166.6865 C.3     1  UNL1        0.1101
     19 C         138.4674  140.2171  169.9745 C.2     1  UNL1        0.2891
     20 O         138.9512  141.5468  170.4724 O.2     1  UNL1       -0.2607
     21 N         139.0626  139.6188  168.7344 N.am    1  UNL1       -0.2942
     22 H         138.7451  138.7461  168.4076 H       1  UNL1        0.1503
     23 C         135.2306  138.0227  172.2012 C.3     1  UNL1        0.0905
     24 C         136.3095  138.7541  171.4589 C.1     1  UNL1       -0.0810
     25 C         137.3885  139.4857  170.7168 C.1     1  UNL1       -0.0073
     26 C         139.6712  144.4324  160.7213 C.2     1  UNL1        0.2440
     27 N         139.3218  143.6067  159.5188 N.am    1  UNL1       -0.3253
     28 O         139.7107  145.9283  160.6183 O.2     1  UNL1       -0.2703
     29 H         139.2959  142.6248  159.5865 H       1  UNL1        0.1453
     30 H         139.1185  144.0465  158.6619 H       1  UNL1        0.1453
@<TRIPOS>BOND
     1    23    24    1
     2    24    25    3
     3    25    19    1
     4    19    20    2
     5    19    21   am
     6    13    21    1
     7    13    14    1
     8    14    15    1
     9    15    16    1
    10    16    17    1
    11    17     1    1
    12     1     2    2
    13     2     3    1
    14     2     4    1
    15     4     5    2
    16     5    26    1
    17    26    27   am
    18    26    28    2
    19     5     6    1
    20     6     7    2
    21     7     8    1
    22     8     9    1
    23     8    10    2
    24    10    11    1
    25    10    12    1
    26    17    18    1
    27    18    13    1
    28    12     1    1
    29    12     6    1
    30    21    22    1
    31    27    29    1
    32    27    30    1
@<TRIPOS>MOLECULE
*****
 30 32 0 0 0
SMALL
GASTEIGER

@<TRIPOS>ATOM
      1 C         139.5834  142.2501  163.7500 C.2     1  UNL1        0.0618
      2 C         138.3105  141.4681  163.6154 C.2     1  UNL1        0.1501
      3 F         137.4431  141.6499  162.4051 F       1  UNL1       -0.2032
      4 C         137.9049  140.5046  164.6909 C.2     1  UNL1        0.0363
      5 C         138.7723  140.3228  165.9012 C.2     1  UNL1        0.0696
      6 C         140.0453  141.1047  166.0358 C.2     1  UNL1        0.0718
      7 N         141.0952  141.1365  167.1067 N.2     1  UNL1       -0.2538
      8 C         142.1496  142.1197  166.6929 C.2     1  UNL1        0.0518
      9 C         143.3854  142.4663  167.4693 C.3     1  UNL1        0.0514
     10 C         141.7514  142.6957  165.3663 C.2     1  UNL1       -0.0198
     11 C         142.5191  143.7192  164.5833 C.3     1  UNL1        0.0283
     12 C         140.4508  142.0683  164.9602 C.3     1  UNL1        0.0976
     13 C         141.2715  143.7177  160.4718 C.3     1  UNL1        0.0922
     14 C         140.8002  145.1409  160.5231 C.3     1  UNL1        0.0231
     15 C         139.9235  145.6004  161.6501 C.3     1  UNL1        0.0232
     16 C         139.5178  144.6368  162.7258 C.3     1  UNL1        0.0907
     17 N         139.9890  143.2137  162.6744 N.pl3   1  UNL1       -0.3069
     18 C         140.8659  142.7542  161.5474 C.3     1  UNL1        0.1101
     19 C         143.6184  143.0634  159.5699 C.2     1  UNL1        0.2891
     20 O         144.2118  143.3281  160.9218 O.2     1  UNL1       -0.2607
     21 N         142.1482  143.2582  159.3449 N.am    1  UNL1       -0.2942
     22 H         141.7588  143.0845  158.4575 H       1  UNL1        0.1503
     23 C         146.2488  141.6849  156.1888 C.3     1  UNL1        0.0905
     24 C         145.3720  142.1444  157.3158 C.1     1  UNL1       -0.0810
     25 C         144.4952  142.6039  158.4429 C.1     1  UNL1       -0.0073
     26 C         138.3666  139.3591  166.9768 C.2     1  UNL1        0.2440
     27 N         138.9027  139.5194  168.3685 N.am    1  UNL1       -0.3253
     28 O         137.4249  138.2352  166.6605 O.2     1  UNL1       -0.2703
     29 H         139.5207  140.2570  168.5761 H       1  UNL1        0.1453
     30 H         138.6364  138.8869  169.0745 H       1  UNL1        0.1453
@<TRIPOS>BOND
     1    23    24    1
     2    24    25    3
     3    25    19    1
     4    19    20    2
     5    19    21   am
     6    13    21    1
     7    13    14    1
     8    14    15    1
     9    15    16    1
    10    16    17    1
    11    17     1    1
    12     1     2    2
    13     2     3    1
    14     2     4    1
    15     4     5    2
    16     5    26    1
    17    26    27   am
    18    26    28    2
    19     5     6    1
    20     6     7    2
    21     7     8    1
    22     8     9    1
    23     8    10    2
    24    10    11    1
    25    10    12    1
    26    17    18    1
    27    18    13    1
    28    12     1    1
    29    12     6    1
    30    21    22    1
    31    27    29    1
    32    27    30    1
@<TRIPOS>MOLECULE
*****
 30 32 0 0 0
SMALL
GASTEIGER

@<TRIPOS>ATOM
      1 C         141.4829  142.1877  165.7497 C.2     1  UNL1        0.0618
      2 C         140.4783  142.9718  166.5409 C.2     1  UNL1        0.1501
      3 F         139.8823  144.2227  165.9663 F       1  UNL1       -0.2032
      4 C         140.0698  142.5052  167.9066 C.2     1  UNL1        0.0363
      5 C         140.6659  141.2543  168.4813 C.2     1  UNL1        0.0696
      6 C         141.6704  140.4701  167.6901 C.2     1  UNL1        0.0718
      7 N         142.4230  139.2085  167.9932 N.2     1  UNL1       -0.2538
      8 C         143.2967  138.8955  166.8147 C.2     1  UNL1        0.0518
      9 C         144.2208  137.7206  166.6896 C.3     1  UNL1        0.0514
     10 C         143.0840  139.9637  165.7833 C.2     1  UNL1       -0.0198
     11 C         143.7581  140.0445  164.4458 C.3     1  UNL1        0.0283
     12 C         142.0789  140.9369  166.3243 C.3     1  UNL1        0.0976
     13 C         141.5043  142.7082  161.8155 C.3     1  UNL1        0.0922
     14 C         142.7084  143.5879  161.6524 C.3     1  UNL1        0.0231
     15 C         143.5039  144.0007  162.8552 C.3     1  UNL1        0.0232
     16 C         143.0955  143.5340  164.2210 C.3     1  UNL1        0.0907
     17 N         141.8914  142.6544  164.3840 N.pl3   1  UNL1       -0.3069
     18 C         141.0958  142.2416  163.1812 C.3     1  UNL1        0.1101
     19 C         139.5231  143.1075  160.1828 C.2     1  UNL1        0.2891
     20 O         139.1331  144.3325  160.9556 O.2     1  UNL1       -0.2607
     21 N         140.7087  142.2954  160.6127 N.am    1  UNL1       -0.2942
     22 H         140.9647  141.4914  160.1055 H       1  UNL1        0.1503
     23 C         137.1364  141.8689  156.5745 C.3     1  UNL1        0.0905
     24 C         137.9320  142.2817  157.7773 C.1     1  UNL1       -0.0810
     25 C         138.7276  142.6946  158.9800 C.1     1  UNL1       -0.0073
     26 C         140.2573  140.7876  169.8471 C.2     1  UNL1        0.2440
     27 N         140.7658  139.4793  170.3759 N.am    1  UNL1       -0.3253
     28 O         139.3401  141.6293  170.6839 O.2     1  UNL1       -0.2703
     29 H         141.3678  138.9269  169.8266 H       1  UNL1        0.1453
     30 H         140.4977  139.1730  171.2723 H       1  UNL1        0.1453
@<TRIPOS>BOND
     1    23    24    1
     2    24    25    3
     3    25    19    1
     4    19    20    2
     5    19    21   am
     6    13    21    1
     7    13    14    1
     8    14    15    1
     9    15    16    1
    10    16    17    1
    11    17     1    1
    12     1     2    2
    13     2     3    1
    14     2     4    1
    15     4     5    2
    16     5    26    1
    17    26    27   am
    18    26    28    2
    19     5     6    1
    20     6     7    2
    21     7     8    1
    22     8     9    1
    23     8    10    2
    24    10    11    1
    25    10    12    1
    26    17    18    1
    27    18    13    1
    28    12     1    1
    29    12     6    1
    30    21    22    1
    31    27    29    1
    32    27    30    1
