@<TRIPOS>MOLECULE
*****
 25 27 0 0 0
SMALL
GASTEIGER

@<TRIPOS>ATOM
      1 N         137.9590  140.2680  162.6116 N.ar    1  UNL1       -0.3165
      2 C         137.7563  139.0944  161.6996 C.ar    1  UNL1        0.0779
      3 C         138.6856  138.0014  162.1373 C.ar    1  UNL1        0.0392
      4 C         139.4626  138.4993  163.3198 C.ar    1  UNL1        0.0985
      5 N         140.5211  137.8582  164.1674 N.ar    1  UNL1       -0.2423
      6 C         141.1304  138.6179  165.3082 C.ar    1  UNL1        0.0989
      7 C         140.6814  140.0187  165.6014 C.ar    1  UNL1        0.0206
      8 C         139.6229  140.6599  164.7537 C.ar    1  UNL1        0.0203
      9 C         139.0136  139.9002  163.6129 C.ar    1  UNL1        0.0782
     10 C         141.2908  140.7784  166.7422 C.ar    1  UNL1        0.0015
     11 C         142.5602  141.5505  166.5362 C.ar    1  UNL1       -0.0000
     12 C         143.1696  142.3102  167.6771 C.ar    1  UNL1        0.0039
     13 C         142.5096  142.2978  169.0240 C.ar    1  UNL1        0.0714
     14 C         141.2401  141.5257  169.2300 C.ar    1  UNL1        0.0039
     15 C         140.6307  140.7661  168.0892 C.ar    1  UNL1       -0.0000
     16 C         143.1189  143.0575  170.1648 C.3     1  UNL1        0.4186
     17 F         143.7283  143.8171  171.3056 F       1  UNL1       -0.1659
     18 F         144.3636  142.2280  170.0523 F       1  UNL1       -0.1659
     19 F         141.8742  143.8869  170.2773 F       1  UNL1       -0.1659
     20 C         137.2343  141.5791  162.5356 C.3     1  UNL1        0.1920
     21 C         139.0047  145.1310  162.5391 C.3     1  UNL1        0.1150
     22 N         138.2874  143.9044  163.0196 N.am    1  UNL1       -0.2744
     23 C         137.9058  143.7764  164.4646 C.3     1  UNL1        0.1150
     24 C         137.9517  142.8058  162.0551 C.2     1  UNL1        0.2488
     25 O         138.3333  142.9338  160.6101 O.2     1  UNL1       -0.2728
@<TRIPOS>BOND
     1    21    22    1
     2    22    23    1
     3    22    24   am
     4    24    25    2
     5    24    20    1
     6    20     1    1
     7     1     2   ar
     8     2     3   ar
     9     3     4   ar
    10     4     5   ar
    11     5     6   ar
    12     6     7   ar
    13     7    10    1
    14    10    11   ar
    15    11    12   ar
    16    12    13   ar
    17    13    16    1
    18    16    17    1
    19    16    18    1
    20    16    19    1
    21    13    14   ar
    22    14    15   ar
    23     7     8   ar
    24     8     9   ar
    25     9     1   ar
    26     9     4   ar
    27    15    10   ar
@<TRIPOS>MOLECULE
*****
 25 27 0 0 0
SMALL
GASTEIGER

@<TRIPOS>ATOM
      1 N         141.8923  143.7618  160.7718 N.ar    1  UNL1       -0.3165
      2 C         141.3307  144.6941  159.7396 C.ar    1  UNL1        0.0779
      3 C         140.0373  145.2426  160.2652 C.ar    1  UNL1        0.0392
      4 C         139.7995  144.6493  161.6222 C.ar    1  UNL1        0.0985
      5 N         138.6872  144.8242  162.6132 N.ar    1  UNL1       -0.2423
      6 C         138.7213  144.0839  163.9173 C.ar    1  UNL1        0.0989
      7 C         139.8678  143.1687  164.2304 C.ar    1  UNL1        0.0206
      8 C         140.9801  142.9938  163.2394 C.ar    1  UNL1        0.0203
      9 C         140.9460  143.7341  161.9353 C.ar    1  UNL1        0.0782
     10 C         139.9019  142.4283  165.5346 C.ar    1  UNL1        0.0015
     11 C         140.4511  143.0946  166.7611 C.ar    1  UNL1       -0.0000
     12 C         140.4852  142.3543  168.0653 C.ar    1  UNL1        0.0039
     13 C         139.9700  140.9477  168.1428 C.ar    1  UNL1        0.0714
     14 C         139.4207  140.2814  166.9163 C.ar    1  UNL1        0.0039
     15 C         139.3867  141.0217  165.6122 C.ar    1  UNL1       -0.0000
     16 C         140.0040  140.2074  169.4469 C.3     1  UNL1        0.4186
     17 F         140.0381  139.4670  170.7510 F       1  UNL1       -0.1659
     18 F         138.7352  140.8884  169.8667 F       1  UNL1       -0.1659
     19 F         141.2729  139.5263  169.0272 F       1  UNL1       -0.1659
     20 C         143.1750  142.9922  160.6601 C.3     1  UNL1        0.1920
     21 C         145.7436  141.7865  163.4348 C.3     1  UNL1        0.1150
     22 N         144.7473  141.7502  162.3141 N.am    1  UNL1       -0.2744
     23 C         144.3268  140.4356  161.7267 C.3     1  UNL1        0.1150
     24 C         144.1714  143.0285  161.7809 C.2     1  UNL1        0.2488
     25 O         144.5919  144.3430  162.3683 O.2     1  UNL1       -0.2728
@<TRIPOS>BOND
     1    21    22    1
     2    22    23    1
     3    22    24   am
     4    24    25    2
     5    24    20    1
     6    20     1    1
     7     1     2   ar
     8     2     3   ar
     9     3     4   ar
    10     4     5   ar
    11     5     6   ar
    12     6     7   ar
    13     7    10    1
    14    10    11   ar
    15    11    12   ar
    16    12    13   ar
    17    13    16    1
    18    16    17    1
    19    16    18    1
    20    16    19    1
    21    13    14   ar
    22    14    15   ar
    23     7     8   ar
    24     8     9   ar
    25     9     1   ar
    26     9     4   ar
    27    15    10   ar
@<TRIPOS>MOLECULE
*****
 25 27 0 0 0
SMALL
GASTEIGER

@<TRIPOS>ATOM
      1 N         141.3015  144.4520  161.6599 N.ar    1  UNL1       -0.3165
      2 C         140.4519  145.5435  161.0795 C.ar    1  UNL1        0.0779
      3 C         139.4067  145.9056  162.0926 C.ar    1  UNL1        0.0392
      4 C         139.6103  145.0380  163.2992 C.ar    1  UNL1        0.0985
      5 N         138.8807  144.9500  164.6068 N.ar    1  UNL1       -0.2423
      6 C         139.3222  143.9636  165.6469 C.ar    1  UNL1        0.0989
      7 C         140.4932  143.0652  165.3796 C.ar    1  UNL1        0.0206
      8 C         141.2229  143.1532  164.0720 C.ar    1  UNL1        0.0203
      9 C         140.7814  144.1396  163.0318 C.ar    1  UNL1        0.0782
     10 C         140.9347  142.0787  166.4198 C.ar    1  UNL1        0.0015
     11 C         139.9602  141.0772  166.9651 C.ar    1  UNL1       -0.0000
     12 C         140.4017  140.0908  168.0054 C.ar    1  UNL1        0.0039
     13 C         141.8176  140.1059  168.5004 C.ar    1  UNL1        0.0714
     14 C         142.7921  141.1075  167.9550 C.ar    1  UNL1        0.0039
     15 C         142.3506  142.0939  166.9148 C.ar    1  UNL1       -0.0000
     16 C         142.2590  139.1195  169.5406 C.3     1  UNL1        0.4186
     17 F         142.7005  138.1332  170.5808 F       1  UNL1       -0.1659
     18 F         141.4273  139.8298  170.5671 F       1  UNL1       -0.1659
     19 F         143.0908  138.4093  168.5141 F       1  UNL1       -0.1659
     20 C         142.4667  143.7893  160.9868 C.3     1  UNL1        0.1920
     21 C         145.4048  141.7552  162.7130 C.3     1  UNL1        0.1150
     22 N         144.1620  142.0618  161.9311 N.am    1  UNL1       -0.2744
     23 C         143.3717  140.9475  161.3117 C.3     1  UNL1        0.1150
     24 C         143.7096  143.4827  161.7687 C.2     1  UNL1        0.2488
     25 O         144.5000  144.5969  162.3881 O.2     1  UNL1       -0.2728
@<TRIPOS>BOND
     1    21    22    1
     2    22    23    1
     3    22    24   am
     4    24    25    2
     5    24    20    1
     6    20     1    1
     7     1     2   ar
     8     2     3   ar
     9     3     4   ar
    10     4     5   ar
    11     5     6   ar
    12     6     7   ar
    13     7    10    1
    14    10    11   ar
    15    11    12   ar
    16    12    13   ar
    17    13    16    1
    18    16    17    1
    19    16    18    1
    20    16    19    1
    21    13    14   ar
    22    14    15   ar
    23     7     8   ar
    24     8     9   ar
    25     9     1   ar
    26     9     4   ar
    27    15    10   ar
@<TRIPOS>MOLECULE
*****
 25 27 0 0 0
SMALL
GASTEIGER

@<TRIPOS>ATOM
      1 N         138.4392  140.1805  161.4053 N.ar    1  UNL1       -0.3165
      2 C         138.5067  139.4051  160.1231 C.ar    1  UNL1        0.0779
      3 C         139.4481  138.2551  160.3260 C.ar    1  UNL1        0.0392
      4 C         139.9624  138.3197  161.7336 C.ar    1  UNL1        0.0985
      5 N         140.9179  137.4488  162.4940 N.ar    1  UNL1       -0.2423
      6 C         141.2499  137.7678  163.9216 C.ar    1  UNL1        0.0989
      7 C         140.6263  138.9578  164.5887 C.ar    1  UNL1        0.0206
      8 C         139.6708  139.8288  163.8282 C.ar    1  UNL1        0.0203
      9 C         139.3388  139.5098  162.4007 C.ar    1  UNL1        0.0782
     10 C         140.9584  139.2769  166.0163 C.ar    1  UNL1        0.0015
     11 C         142.3686  139.1366  166.5077 C.ar    1  UNL1       -0.0000
     12 C         142.7006  139.4556  167.9354 C.ar    1  UNL1        0.0039
     13 C         141.6223  139.9149  168.8715 C.ar    1  UNL1        0.0714
     14 C         140.2120  140.0552  168.3800 C.ar    1  UNL1        0.0039
     15 C         139.8801  139.7362  166.9524 C.ar    1  UNL1       -0.0000
     16 C         141.9543  140.2340  170.2991 C.3     1  UNL1        0.4186
     17 F         142.2862  140.5530  171.7266 F       1  UNL1       -0.1659
     18 F         143.2957  140.7513  169.8715 F       1  UNL1       -0.1659
     19 F         140.6129  139.7166  170.7266 F       1  UNL1       -0.1659
     20 C         137.6164  141.4108  161.6494 C.3     1  UNL1        0.1920
     21 C         139.0091  144.9855  162.6653 C.3     1  UNL1        0.1150
     22 N         138.3780  143.6287  162.7681 N.am    1  UNL1       -0.2744
     23 C         137.8772  143.1327  164.0922 C.3     1  UNL1        0.1150
     24 C         138.2476  142.7678  161.5467 C.2     1  UNL1        0.2488
     25 O         138.7483  143.2637  160.2226 O.2     1  UNL1       -0.2728
@<TRIPOS>BOND
     1    21    22    1
     2    22    23    1
     3    22    24   am
     4    24    25    2
     5    24    20    1
     6    20     1    1
     7     1     2   ar
     8     2     3   ar
     9     3     4   ar
    10     4     5   ar
    11     5     6   ar
    12     6     7   ar
    13     7    10    1
    14    10    11   ar
    15    11    12   ar
    16    12    13   ar
    17    13    16    1
    18    16    17    1
    19    16    18    1
    20    16    19    1
    21    13    14   ar
    22    14    15   ar
    23     7     8   ar
    24     8     9   ar
    25     9     1   ar
    26     9     4   ar
    27    15    10   ar
@<TRIPOS>MOLECULE
*****
 25 27 0 0 0
SMALL
GASTEIGER

@<TRIPOS>ATOM
      1 N         139.7455  143.3960  160.6665 N.ar    1  UNL1       -0.3165
      2 C         139.1826  143.0837  159.3117 C.ar    1  UNL1        0.0779
      3 C         138.3606  141.8344  159.4280 C.ar    1  UNL1        0.0392
      4 C         138.4155  141.3745  160.8548 C.ar    1  UNL1        0.0985
      5 N         137.7968  140.2017  161.5558 N.ar    1  UNL1       -0.2423
      6 C         138.0339  139.9940  163.0223 C.ar    1  UNL1        0.0989
      7 C         138.8899  140.9592  163.7877 C.ar    1  UNL1        0.0206
      8 C         139.5086  142.1320  163.0866 C.ar    1  UNL1        0.0203
      9 C         139.2715  142.3397  161.6202 C.ar    1  UNL1        0.0782
     10 C         139.1270  140.7514  165.2542 C.ar    1  UNL1        0.0015
     11 C         140.0125  141.6957  166.0120 C.ar    1  UNL1       -0.0000
     12 C         140.2496  141.4880  167.4785 C.ar    1  UNL1        0.0039
     13 C         139.6013  140.3359  168.1873 C.ar    1  UNL1        0.0714
     14 C         138.7158  139.3916  167.4295 C.ar    1  UNL1        0.0039
     15 C         138.4786  139.5993  165.9630 C.ar    1  UNL1       -0.0000
     16 C         139.8384  140.1281  169.6537 C.3     1  UNL1        0.4186
     17 F         140.0755  139.9204  171.1202 F       1  UNL1       -0.1659
     18 F         138.5238  140.7827  169.9590 F       1  UNL1       -0.1659
     19 F         141.1530  139.4735  169.3484 F       1  UNL1       -0.1659
     20 C         140.6277  144.5602  161.0077 C.3     1  UNL1        0.1920
     21 C         144.0863  144.4298  162.9497 C.3     1  UNL1        0.1150
     22 N         142.6314  144.6511  162.6591 N.am    1  UNL1       -0.2744
     23 C         141.7255  145.1845  163.7290 C.3     1  UNL1        0.1150
     24 C         142.0826  144.3389  161.2984 C.2     1  UNL1        0.2488
     25 O         142.9885  143.8055  160.2285 O.2     1  UNL1       -0.2728
@<TRIPOS>BOND
     1    21    22    1
     2    22    23    1
     3    22    24   am
     4    24    25    2
     5    24    20    1
     6    20     1    1
     7     1     2   ar
     8     2     3   ar
     9     3     4   ar
    10     4     5   ar
    11     5     6   ar
    12     6     7   ar
    13     7    10    1
    14    10    11   ar
    15    11    12   ar
    16    12    13   ar
    17    13    16    1
    18    16    17    1
    19    16    18    1
    20    16    19    1
    21    13    14   ar
    22    14    15   ar
    23     7     8   ar
    24     8     9   ar
    25     9     1   ar
    26     9     4   ar
    27    15    10   ar
@<TRIPOS>MOLECULE
*****
 25 27 0 0 0
SMALL
GASTEIGER

@<TRIPOS>ATOM
      1 N         139.1876  140.5428  161.4201 N.ar    1  UNL1       -0.3165
      2 C         138.4092  139.4501  160.7492 C.ar    1  UNL1        0.0779
      3 C         138.1124  138.3960  161.7742 C.ar    1  UNL1        0.0392
      4 C         138.7073  138.8371  163.0786 C.ar    1  UNL1        0.0985
      5 N         138.7298  138.2021  164.4374 N.ar    1  UNL1       -0.2423
      6 C         139.4168  138.8939  165.5772 C.ar    1  UNL1        0.0989
      7 C         140.0814  140.2208  165.3584 C.ar    1  UNL1        0.0206
      8 C         140.0589  140.8558  163.9996 C.ar    1  UNL1        0.0203
      9 C         139.3719  140.1640  162.8598 C.ar    1  UNL1        0.0782
     10 C         140.7684  140.9126  166.4983 C.ar    1  UNL1        0.0015
     11 C         140.0370  141.1400  167.7880 C.ar    1  UNL1       -0.0000
     12 C         140.7241  141.8318  168.9280 C.ar    1  UNL1        0.0039
     13 C         142.1425  142.2962  168.7782 C.ar    1  UNL1        0.0714
     14 C         142.8739  142.0687  167.4884 C.ar    1  UNL1        0.0039
     15 C         142.1868  141.3769  166.3485 C.ar    1  UNL1       -0.0000
     16 C         142.8296  142.9879  169.9180 C.3     1  UNL1        0.4186
     17 F         143.5166  143.6797  171.0579 F       1  UNL1       -0.1659
     18 F         141.5910  143.7940  170.1753 F       1  UNL1       -0.1659
     19 F         144.0681  142.1818  169.6608 F       1  UNL1       -0.1659
     20 C         139.6931  141.7945  160.7662 C.3     1  UNL1        0.1920
     21 C         139.8083  145.5939  161.9072 C.3     1  UNL1        0.1150
     22 N         140.2476  144.2526  161.3994 N.am    1  UNL1       -0.2744
     23 C         141.6805  144.0278  161.0169 C.3     1  UNL1        0.1150
     24 C         139.2539  143.1360  161.2740 C.2     1  UNL1        0.2488
     25 O         137.8210  143.3607  161.6565 O.2     1  UNL1       -0.2728
@<TRIPOS>BOND
     1    21    22    1
     2    22    23    1
     3    22    24   am
     4    24    25    2
     5    24    20    1
     6    20     1    1
     7     1     2   ar
     8     2     3   ar
     9     3     4   ar
    10     4     5   ar
    11     5     6   ar
    12     6     7   ar
    13     7    10    1
    14    10    11   ar
    15    11    12   ar
    16    12    13   ar
    17    13    16    1
    18    16    17    1
    19    16    18    1
    20    16    19    1
    21    13    14   ar
    22    14    15   ar
    23     7     8   ar
    24     8     9   ar
    25     9     1   ar
    26     9     4   ar
    27    15    10   ar
@<TRIPOS>MOLECULE
*****
 25 27 0 0 0
SMALL
GASTEIGER

@<TRIPOS>ATOM
      1 N         141.9540  138.8133  161.6088 N.ar    1  UNL1       -0.3165
      2 C         141.2514  138.4105  160.3462 C.ar    1  UNL1        0.0779
      3 C         139.7762  138.5705  160.5655 C.ar    1  UNL1        0.0392
      4 C         139.5670  139.0721  161.9635 C.ar    1  UNL1        0.0985
      5 N         138.3248  139.4116  162.7327 N.ar    1  UNL1       -0.2423
      6 C         138.4286  139.9011  164.1467 C.ar    1  UNL1        0.0989
      7 C         139.7745  140.0512  164.7916 C.ar    1  UNL1        0.0206
      8 C         141.0167  139.7117  164.0224 C.ar    1  UNL1        0.0203
      9 C         140.9129  139.2222  162.6084 C.ar    1  UNL1        0.0782
     10 C         139.8783  140.5408  166.2057 C.ar    1  UNL1        0.0015
     11 C         139.3322  139.7101  167.3289 C.ar    1  UNL1       -0.0000
     12 C         139.4360  140.1997  168.7430 C.ar    1  UNL1        0.0039
     13 C         140.0858  141.5200  169.0338 C.ar    1  UNL1        0.0714
     14 C         140.6319  142.3508  167.9104 C.ar    1  UNL1        0.0039
     15 C         140.5281  141.8611  166.4964 C.ar    1  UNL1       -0.0000
     16 C         140.1896  142.0097  170.4478 C.3     1  UNL1        0.4186
     17 F         140.2933  142.4993  171.8618 F       1  UNL1       -0.1659
     18 F         139.8769  143.4029  169.9883 F       1  UNL1       -0.1659
     19 F         140.5022  140.6165  170.9073 F       1  UNL1       -0.1659
     20 C         143.4372  138.8081  161.8326 C.3     1  UNL1        0.1920
     21 C         145.6785  141.7214  163.3290 C.3     1  UNL1        0.1150
     22 N         144.9335  140.4250  163.2099 N.am    1  UNL1       -0.2744
     23 C         144.9398  139.4489  164.3489 C.3     1  UNL1        0.1150
     24 C         144.1822  140.1046  161.9518 C.2     1  UNL1        0.2488
     25 O         144.1759  141.0807  160.8128 O.2     1  UNL1       -0.2728
@<TRIPOS>BOND
     1    21    22    1
     2    22    23    1
     3    22    24   am
     4    24    25    2
     5    24    20    1
     6    20     1    1
     7     1     2   ar
     8     2     3   ar
     9     3     4   ar
    10     4     5   ar
    11     5     6   ar
    12     6     7   ar
    13     7    10    1
    14    10    11   ar
    15    11    12   ar
    16    12    13   ar
    17    13    16    1
    18    16    17    1
    19    16    18    1
    20    16    19    1
    21    13    14   ar
    22    14    15   ar
    23     7     8   ar
    24     8     9   ar
    25     9     1   ar
    26     9     4   ar
    27    15    10   ar
@<TRIPOS>MOLECULE
*****
 25 27 0 0 0
SMALL
GASTEIGER

@<TRIPOS>ATOM
      1 N         143.6269  139.8313  161.2267 N.ar    1  UNL1       -0.3165
      2 C         143.4255  139.0135  159.9855 C.ar    1  UNL1        0.0779
      3 C         142.4499  137.9196  160.3045 C.ar    1  UNL1        0.0392
      4 C         142.0483  138.0615  161.7428 C.ar    1  UNL1        0.0985
      5 N         141.1143  137.2674  162.6070 N.ar    1  UNL1       -0.2423
      6 C         140.9077  137.6549  164.0413 C.ar    1  UNL1        0.0989
      7 C         141.6351  138.8364  164.6113 C.ar    1  UNL1        0.0206
      8 C         142.5691  139.6305  163.7470 C.ar    1  UNL1        0.0203
      9 C         142.7757  139.2430  162.3127 C.ar    1  UNL1        0.0782
     10 C         141.4284  139.2239  166.0456 C.ar    1  UNL1        0.0015
     11 C         142.5863  139.2152  166.9991 C.ar    1  UNL1       -0.0000
     12 C         142.3796  139.6027  168.4335 C.ar    1  UNL1        0.0039
     13 C         141.0151  139.9988  168.9142 C.ar    1  UNL1        0.0714
     14 C         139.8572  140.0075  167.9606 C.ar    1  UNL1        0.0039
     15 C         140.0639  139.6200  166.5263 C.ar    1  UNL1       -0.0000
     16 C         140.8084  140.3863  170.3484 C.3     1  UNL1        0.4186
     17 F         140.6017  140.7737  171.7827 F       1  UNL1       -0.1659
     18 F         142.2181  139.9804  170.6612 F       1  UNL1       -0.1659
     19 F         139.3987  140.7922  170.0356 F       1  UNL1       -0.1659
     20 C         144.5222  141.0276  161.3587 C.3     1  UNL1        0.1920
     21 C         143.6081  144.4220  163.2006 C.3     1  UNL1        0.1150
     22 N         144.1984  143.0694  162.9324 N.am    1  UNL1       -0.2744
     23 C         145.0552  142.4059  163.9695 C.3     1  UNL1        0.1150
     24 C         143.9319  142.3803  161.6270 C.2     1  UNL1        0.2488
     25 O         143.0751  143.0438  160.5898 O.2     1  UNL1       -0.2728
@<TRIPOS>BOND
     1    21    22    1
     2    22    23    1
     3    22    24   am
     4    24    25    2
     5    24    20    1
     6    20     1    1
     7     1     2   ar
     8     2     3   ar
     9     3     4   ar
    10     4     5   ar
    11     5     6   ar
    12     6     7   ar
    13     7    10    1
    14    10    11   ar
    15    11    12   ar
    16    12    13   ar
    17    13    16    1
    18    16    17    1
    19    16    18    1
    20    16    19    1
    21    13    14   ar
    22    14    15   ar
    23     7     8   ar
    24     8     9   ar
    25     9     1   ar
    26     9     4   ar
    27    15    10   ar
@<TRIPOS>MOLECULE
*****
 25 27 0 0 0
SMALL
GASTEIGER

@<TRIPOS>ATOM
      1 N         139.9523  140.7044  160.9948 N.ar    1  UNL1       -0.3165
      2 C         139.6407  139.8201  159.8239 C.ar    1  UNL1        0.0779
      3 C         139.6344  138.3993  160.3049 C.ar    1  UNL1        0.0392
      4 C         139.9421  138.4056  161.7730 C.ar    1  UNL1        0.0985
      5 N         140.0687  137.2981  162.7767 N.ar    1  UNL1       -0.2423
      6 C         140.3918  137.6152  164.2067 C.ar    1  UNL1        0.0989
      7 C         140.5883  139.0399  164.6330 C.ar    1  UNL1        0.0206
      8 C         140.4617  140.1474  163.6294 C.ar    1  UNL1        0.0203
      9 C         140.1386  139.8302  162.1994 C.ar    1  UNL1        0.0782
     10 C         140.9115  139.3570  166.0631 C.ar    1  UNL1        0.0015
     11 C         142.3219  139.2335  166.5585 C.ar    1  UNL1       -0.0000
     12 C         142.6450  139.5506  167.9886 C.ar    1  UNL1        0.0039
     13 C         141.5577  139.9912  168.9233 C.ar    1  UNL1        0.0714
     14 C         140.1472  140.1146  168.4278 C.ar    1  UNL1        0.0039
     15 C         139.8241  139.7975  166.9978 C.ar    1  UNL1       -0.0000
     16 C         141.8807  140.3083  170.3533 C.3     1  UNL1        0.4186
     17 F         142.2038  140.6254  171.7833 F       1  UNL1       -0.1659
     18 F         140.4492  140.0667  170.7303 F       1  UNL1       -0.1659
     19 F         143.3123  140.5499  169.9763 F       1  UNL1       -0.1659
     20 C         140.0590  142.2004  160.9661 C.3     1  UNL1        0.1920
     21 C         138.7098  144.6856  163.7506 C.3     1  UNL1        0.1150
     22 N         139.6478  143.8510  162.9300 N.am    1  UNL1       -0.2744
     23 C         141.1126  143.8323  163.2523 C.3     1  UNL1        0.1150
     24 C         139.1210  143.0350  161.7868 C.2     1  UNL1        0.2488
     25 O         137.6561  143.0537  161.4644 O.2     1  UNL1       -0.2728
@<TRIPOS>BOND
     1    21    22    1
     2    22    23    1
     3    22    24   am
     4    24    25    2
     5    24    20    1
     6    20     1    1
     7     1     2   ar
     8     2     3   ar
     9     3     4   ar
    10     4     5   ar
    11     5     6   ar
    12     6     7   ar
    13     7    10    1
    14    10    11   ar
    15    11    12   ar
    16    12    13   ar
    17    13    16    1
    18    16    17    1
    19    16    18    1
    20    16    19    1
    21    13    14   ar
    22    14    15   ar
    23     7     8   ar
    24     8     9   ar
    25     9     1   ar
    26     9     4   ar
    27    15    10   ar
