@<TRIPOS>MOLECULE
*****
 34 37 0 0 0
SMALL
GASTEIGER

@<TRIPOS>ATOM
      1 C         139.1064  138.6905  162.6758 C.ar    1  UNL1        0.0505
      2 C         139.4411  137.5992  163.6488 C.ar    1  UNL1        0.0148
      3 C         139.2890  137.8353  165.1222 C.ar    1  UNL1        0.0060
      4 C         138.8021  139.1629  165.6228 C.ar    1  UNL1        0.0553
      5 C         138.4673  140.2543  164.6497 C.ar    1  UNL1        0.0060
      6 C         138.6194  140.0181  163.1762 C.ar    1  UNL1        0.0148
      7 C         138.6499  139.3990  167.0961 C.ar    1  UNL1        0.2512
      8 N         137.6858  138.6978  168.0066 N.ar    1  UNL1       -0.1058
      9 N         137.8752  139.2433  169.3909 N.ar    1  UNL1       -0.0923
     10 C         138.9564  140.2816  169.3362 C.ar    1  UNL1        0.3086
     11 O         139.4351  140.3779  167.9179 O.2     1  UNL1       -0.4048
     12 N         139.4687  141.0830  170.4960 N.pl3   1  UNL1       -0.2871
     13 H         139.3450  140.7530  171.4153 H       1  UNL1        0.1512
     14 C         140.1696  142.3871  170.2552 C.3     1  UNL1        0.0925
     15 C         141.6480  142.4974  170.4841 C.3     1  UNL1        0.0386
     16 C         142.5771  142.6628  169.3182 C.3     1  UNL1        0.0738
     17 N         142.5427  141.6791  168.1863 N.3     1  UNL1       -0.2726
     18 C         142.2589  142.2562  166.8311 C.3     1  UNL1        0.0721
     19 C         142.1588  141.5451  165.5140 C.3     1  UNL1        0.0173
     20 C         142.3179  140.0815  165.2270 C.3     1  UNL1        0.0015
     21 C         142.6163  138.9674  166.1860 C.3     1  UNL1        0.0015
     22 C         142.8293  139.0417  167.6689 C.3     1  UNL1        0.0173
     23 C         142.7965  140.2486  168.5591 C.3     1  UNL1        0.0721
     24 O         141.6126  139.5516  161.2695 O.2     1  UNL1       -0.2697
     25 C         140.5116  138.8849  160.4992 C.2     1  UNL1        0.2517
     26 N         139.2585  138.4543  161.2024 N.am    1  UNL1       -0.2803
     27 H         138.5359  138.0167  160.6968 H       1  UNL1        0.1552
     28 C         140.6637  138.6487  159.0257 C.ar    1  UNL1        0.0811
     29 C         139.5491  139.0102  158.0892 C.ar    1  UNL1        0.0068
     30 C         139.7013  138.7740  156.6158 C.ar    1  UNL1        0.0003
     31 C         140.9680  138.1764  156.0789 C.ar    1  UNL1        0.0023
     32 C         142.0826  137.8149  157.0153 C.ar    1  UNL1        0.0298
     33 C         141.9305  138.0511  158.4888 C.ar    1  UNL1        0.1445
     34 F         143.0449  137.6897  159.4254 F       1  UNL1       -0.2040
@<TRIPOS>BOND
     1    24    25    2
     2    25    26   am
     3    26     1    1
     4     1     2   ar
     5     2     3   ar
     6     3     4   ar
     7     4     7    1
     8     7     8   ar
     9     8     9   ar
    10     9    10   ar
    11    10    12    1
    12    12    14    1
    13    14    15    1
    14    15    16    1
    15    16    17    1
    16    17    18    1
    17    18    19    1
    18    19    20    1
    19    20    21    1
    20    21    22    1
    21    22    23    1
    22    10    11   ar
    23     4     5   ar
    24     5     6   ar
    25    25    28    1
    26    28    29   ar
    27    29    30   ar
    28    30    31   ar
    29    31    32   ar
    30    32    33   ar
    31    33    34    1
    32     6     1   ar
    33    33    28   ar
    34    11     7   ar
    35    23    17    1
    36    26    27    1
    37    12    13    1
@<TRIPOS>MOLECULE
*****
 34 37 0 0 0
SMALL
GASTEIGER

@<TRIPOS>ATOM
      1 C         138.4366  142.2865  161.7861 C.ar    1  UNL1        0.0505
      2 C         138.3893  143.1093  163.0393 C.ar    1  UNL1        0.0148
      3 C         138.4181  142.4366  164.3797 C.ar    1  UNL1        0.0060
      4 C         138.4940  140.9411  164.4669 C.ar    1  UNL1        0.0553
      5 C         138.5413  140.1182  163.2136 C.ar    1  UNL1        0.0060
      6 C         138.5126  140.7909  161.8732 C.ar    1  UNL1        0.0148
      7 C         138.5228  140.2684  165.8072 C.ar    1  UNL1        0.2512
      8 N         137.7267  139.0608  166.2050 N.ar    1  UNL1       -0.1058
      9 N         138.0645  138.7313  167.6288 N.ar    1  UNL1       -0.0923
     10 C         139.0693  139.7352  168.1111 C.ar    1  UNL1        0.3086
     11 O         139.3525  140.6852  166.9853 O.2     1  UNL1       -0.4048
     12 N         139.6831  139.7810  169.4790 N.pl3   1  UNL1       -0.2871
     13 H         139.5943  139.0099  170.0845 H       1  UNL1        0.1512
     14 C         140.4323  141.0019  169.9243 C.3     1  UNL1        0.0925
     15 C         141.8476  140.8792  170.4058 C.3     1  UNL1        0.0386
     16 C         142.9827  140.9721  169.4297 C.3     1  UNL1        0.0738
     17 N         142.7250  140.8037  167.9616 N.3     1  UNL1       -0.2726
     18 C         142.6631  139.3878  167.4700 C.3     1  UNL1        0.0721
     19 C         142.4242  138.8920  166.0746 C.3     1  UNL1        0.0173
     20 C         142.1883  139.6894  164.8263 C.3     1  UNL1        0.0015
     21 C         142.1330  141.1797  164.6649 C.3     1  UNL1        0.0015
     22 C         142.3000  142.2406  165.7121 C.3     1  UNL1        0.0173
     23 C         142.5634  142.0732  167.1793 C.3     1  UNL1        0.0721
     24 O         140.9993  142.8210  160.3208 O.2     1  UNL1       -0.2697
     25 C         139.6893  143.2264  159.7130 C.2     1  UNL1        0.2517
     26 N         138.4079  142.9592  160.4457 N.am    1  UNL1       -0.2803
     27 H         137.5481  143.2252  160.0468 H       1  UNL1        0.1552
     28 C         139.6605  143.8991  158.3726 C.ar    1  UNL1        0.0811
     29 C         138.8852  143.2880  157.2433 C.ar    1  UNL1        0.0068
     30 C         138.8565  143.9607  155.9029 C.ar    1  UNL1        0.0003
     31 C         139.6031  145.2445  155.6919 C.ar    1  UNL1        0.0023
     32 C         140.3784  145.8556  156.8212 C.ar    1  UNL1        0.0298
     33 C         140.4071  145.1829  158.1616 C.ar    1  UNL1        0.1445
     34 F         141.1824  145.7939  159.2910 F       1  UNL1       -0.2040
@<TRIPOS>BOND
     1    24    25    2
     2    25    26   am
     3    26     1    1
     4     1     2   ar
     5     2     3   ar
     6     3     4   ar
     7     4     7    1
     8     7     8   ar
     9     8     9   ar
    10     9    10   ar
    11    10    12    1
    12    12    14    1
    13    14    15    1
    14    15    16    1
    15    16    17    1
    16    17    18    1
    17    18    19    1
    18    19    20    1
    19    20    21    1
    20    21    22    1
    21    22    23    1
    22    10    11   ar
    23     4     5   ar
    24     5     6   ar
    25    25    28    1
    26    28    29   ar
    27    29    30   ar
    28    30    31   ar
    29    31    32   ar
    30    32    33   ar
    31    33    34    1
    32     6     1   ar
    33    33    28   ar
    34    11     7   ar
    35    23    17    1
    36    26    27    1
    37    12    13    1
@<TRIPOS>MOLECULE
*****
 34 37 0 0 0
SMALL
GASTEIGER

@<TRIPOS>ATOM
      1 C         142.4685  138.9831  169.8844 C.ar    1  UNL1        0.0505
      2 C         141.1251  139.5610  170.2176 C.ar    1  UNL1        0.0148
      3 C         140.2965  140.2009  169.1433 C.ar    1  UNL1        0.0060
      4 C         140.8114  140.2629  167.7358 C.ar    1  UNL1        0.0553
      5 C         142.1549  139.6850  167.4026 C.ar    1  UNL1        0.0060
      6 C         142.9835  139.0451  168.4769 C.ar    1  UNL1        0.0148
      7 C         139.9829  140.9028  166.6616 C.ar    1  UNL1        0.2512
      8 N         140.0207  142.3482  166.2623 N.ar    1  UNL1       -0.1058
      9 N         139.0322  142.5483  165.1520 N.ar    1  UNL1       -0.0923
     10 C         138.3836  141.2266  164.8650 C.ar    1  UNL1        0.3086
     11 O         138.9711  140.2097  165.7980 O.2     1  UNL1       -0.4048
     12 N         137.3320  140.9675  163.8272 N.pl3   1  UNL1       -0.2871
     13 H         136.4991  140.5048  164.0751 H       1  UNL1        0.1512
     14 C         137.5494  141.4133  162.4116 C.3     1  UNL1        0.0925
     15 C         137.6480  140.3977  161.3121 C.3     1  UNL1        0.0386
     16 C         137.9636  138.9679  161.6379 C.3     1  UNL1        0.0738
     17 N         139.1852  138.6339  162.4417 N.3     1  UNL1       -0.2726
     18 C         140.4599  139.2818  161.9880 C.3     1  UNL1        0.0721
     19 C         141.8349  139.1520  162.5735 C.3     1  UNL1        0.0173
     20 C         142.2747  138.3423  163.7570 C.3     1  UNL1        0.0015
     21 C         141.4484  137.4624  164.6475 C.3     1  UNL1        0.0015
     22 C         139.9780  137.1749  164.5743 C.3     1  UNL1        0.0173
     23 C         138.9709  137.6963  163.5926 C.3     1  UNL1        0.0721
     24 O         144.2350  136.6493  169.2264 O.2     1  UNL1       -0.2697
     25 C         144.1803  137.1763  170.6297 C.2     1  UNL1        0.2517
     26 N         143.2970  138.3433  170.9587 N.am    1  UNL1       -0.2803
     27 H         143.2612  138.6892  171.8797 H       1  UNL1        0.1552
     28 C         145.0088  136.5364  171.7039 C.ar    1  UNL1        0.0811
     29 C         145.8266  137.3890  172.6282 C.ar    1  UNL1        0.0068
     30 C         146.6552  136.7492  173.7025 C.ar    1  UNL1        0.0003
     31 C         146.6659  135.2567  173.8524 C.ar    1  UNL1        0.0023
     32 C         145.8481  134.4041  172.9282 C.ar    1  UNL1        0.0298
     33 C         145.0195  135.0440  171.8539 C.ar    1  UNL1        0.1445
     34 F         144.2017  134.1915  170.9296 F       1  UNL1       -0.2040
@<TRIPOS>BOND
     1    24    25    2
     2    25    26   am
     3    26     1    1
     4     1     2   ar
     5     2     3   ar
     6     3     4   ar
     7     4     7    1
     8     7     8   ar
     9     8     9   ar
    10     9    10   ar
    11    10    12    1
    12    12    14    1
    13    14    15    1
    14    15    16    1
    15    16    17    1
    16    17    18    1
    17    18    19    1
    18    19    20    1
    19    20    21    1
    20    21    22    1
    21    22    23    1
    22    10    11   ar
    23     4     5   ar
    24     5     6   ar
    25    25    28    1
    26    28    29   ar
    27    29    30   ar
    28    30    31   ar
    29    31    32   ar
    30    32    33   ar
    31    33    34    1
    32     6     1   ar
    33    33    28   ar
    34    11     7   ar
    35    23    17    1
    36    26    27    1
    37    12    13    1
@<TRIPOS>MOLECULE
*****
 34 37 0 0 0
SMALL
GASTEIGER

@<TRIPOS>ATOM
      1 C         144.0580  142.4774  159.2763 C.ar    1  UNL1        0.0505
      2 C         144.7037  142.6380  160.6206 C.ar    1  UNL1        0.0148
      3 C         143.8936  142.4500  161.8689 C.ar    1  UNL1        0.0060
      4 C         142.4379  142.1016  161.7731 C.ar    1  UNL1        0.0553
      5 C         141.7921  141.9411  160.4287 C.ar    1  UNL1        0.0060
      6 C         142.6022  142.1290  159.1803 C.ar    1  UNL1        0.0148
      7 C         141.6278  141.9137  163.0214 C.ar    1  UNL1        0.2512
      8 N         142.0546  142.2778  164.4126 N.ar    1  UNL1       -0.1058
      9 N         140.9393  141.9178  165.3487 N.ar    1  UNL1       -0.0923
     10 C         139.8232  141.3312  164.5362 C.ar    1  UNL1        0.3086
     11 O         140.2488  141.3286  163.0979 O.2     1  UNL1       -0.4048
     12 N         138.5118  140.8343  165.0686 N.pl3   1  UNL1       -0.2871
     13 H         137.7571  141.4570  165.1778 H       1  UNL1        0.1512
     14 C         138.3504  139.3887  165.4347 C.3     1  UNL1        0.0925
     15 C         138.8457  138.3200  164.5059 C.3     1  UNL1        0.0386
     16 C         140.1046  137.5707  164.8281 C.3     1  UNL1        0.0738
     17 N         141.4195  138.0443  164.2835 N.3     1  UNL1       -0.2726
     18 C         142.3781  138.6041  165.2925 C.3     1  UNL1        0.0721
     19 C         143.7560  139.1533  165.0691 C.3     1  UNL1        0.0173
     20 C         144.5155  139.2784  163.7818 C.3     1  UNL1        0.0015
     21 C         144.0850  138.8852  162.3998 C.3     1  UNL1        0.0015
     22 C         142.7884  138.2697  161.9638 C.3     1  UNL1        0.0173
     23 C         141.6022  137.8955  162.8023 C.3     1  UNL1        0.0721
     24 O         144.8269  140.1006  157.6150 O.2     1  UNL1       -0.2697
     25 C         145.2525  141.4770  157.1973 C.2     1  UNL1        0.2517
     26 N         144.8681  142.6654  158.0279 N.am    1  UNL1       -0.2803
     27 H         145.1475  143.5687  157.7537 H       1  UNL1        0.1552
     28 C         146.0626  141.6649  155.9489 C.ar    1  UNL1        0.0811
     29 C         145.5092  141.2322  154.6235 C.ar    1  UNL1        0.0068
     30 C         146.3193  141.4202  153.3751 C.ar    1  UNL1        0.0003
     31 C         147.6828  142.0407  153.4522 C.ar    1  UNL1        0.0023
     32 C         148.2362  142.4734  154.7775 C.ar    1  UNL1        0.0298
     33 C         147.4261  142.2855  156.0259 C.ar    1  UNL1        0.1445
     34 F         147.9793  142.7181  157.3513 F       1  UNL1       -0.2040
@<TRIPOS>BOND
     1    24    25    2
     2    25    26   am
     3    26     1    1
     4     1     2   ar
     5     2     3   ar
     6     3     4   ar
     7     4     7    1
     8     7     8   ar
     9     8     9   ar
    10     9    10   ar
    11    10    12    1
    12    12    14    1
    13    14    15    1
    14    15    16    1
    15    16    17    1
    16    17    18    1
    17    18    19    1
    18    19    20    1
    19    20    21    1
    20    21    22    1
    21    22    23    1
    22    10    11   ar
    23     4     5   ar
    24     5     6   ar
    25    25    28    1
    26    28    29   ar
    27    29    30   ar
    28    30    31   ar
    29    31    32   ar
    30    32    33   ar
    31    33    34    1
    32     6     1   ar
    33    33    28   ar
    34    11     7   ar
    35    23    17    1
    36    26    27    1
    37    12    13    1
@<TRIPOS>MOLECULE
*****
 34 37 0 0 0
SMALL
GASTEIGER

@<TRIPOS>ATOM
      1 C         140.6437  138.9712  158.3433 C.ar    1  UNL1        0.0505
      2 C         139.9700  140.1153  157.6456 C.ar    1  UNL1        0.0148
      3 C         139.7706  141.4180  158.3621 C.ar    1  UNL1        0.0060
      4 C         140.2449  141.5766  159.7762 C.ar    1  UNL1        0.0553
      5 C         140.9187  140.4323  160.4739 C.ar    1  UNL1        0.0060
      6 C         141.1181  139.1296  159.7575 C.ar    1  UNL1        0.0148
      7 C         140.0456  142.8791  160.4926 C.ar    1  UNL1        0.2512
      8 N         139.6229  144.1747  159.8655 N.ar    1  UNL1       -0.1058
      9 N         139.5500  145.2112  160.9473 N.ar    1  UNL1       -0.0923
     10 C         139.9275  144.5564  162.2429 C.ar    1  UNL1        0.3086
     11 O         140.2338  143.1152  161.9619 O.2     1  UNL1       -0.4048
     12 N         139.9882  145.2254  163.5841 N.pl3   1  UNL1       -0.2871
     13 H         140.6152  145.9692  163.7353 H       1  UNL1        0.1512
     14 C         139.0934  144.7612  164.6948 C.3     1  UNL1        0.0925
     15 C         138.9719  143.2971  164.9979 C.3     1  UNL1        0.0386
     16 C         137.8116  142.5136  164.4599 C.3     1  UNL1        0.0738
     17 N         138.0293  141.1379  163.9029 N.3     1  UNL1       -0.2726
     18 C         137.5424  140.9189  162.5010 C.3     1  UNL1        0.0721
     19 C         137.6110  139.6710  161.6714 C.3     1  UNL1        0.0173
     20 C         138.1834  138.3342  162.0387 C.3     1  UNL1        0.0015
     21 C         138.8286  137.9148  163.3263 C.3     1  UNL1        0.0015
     22 C         139.0607  138.7288  164.5646 C.3     1  UNL1        0.0173
     23 C         138.7049  140.1633  164.8212 C.3     1  UNL1        0.0721
     24 O         143.3255  138.2930  157.1820 O.2     1  UNL1       -0.2697
     25 C         142.1840  137.3294  157.0462 C.2     1  UNL1        0.2517
     26 N         140.8431  137.6685  157.6268 N.am    1  UNL1       -0.2803
     27 H         140.0939  137.0361  157.5377 H       1  UNL1        0.1552
     28 C         142.3833  136.0268  156.3297 C.ar    1  UNL1        0.0811
     29 C         143.5288  135.1332  156.7030 C.ar    1  UNL1        0.0068
     30 C         143.7282  133.8305  155.9866 C.ar    1  UNL1        0.0003
     31 C         142.7821  133.4215  154.8968 C.ar    1  UNL1        0.0023
     32 C         141.6366  134.3150  154.5235 C.ar    1  UNL1        0.0298
     33 C         141.4372  135.6177  155.2400 C.ar    1  UNL1        0.1445
     34 F         140.2918  136.5113  154.8667 F       1  UNL1       -0.2040
@<TRIPOS>BOND
     1    24    25    2
     2    25    26   am
     3    26     1    1
     4     1     2   ar
     5     2     3   ar
     6     3     4   ar
     7     4     7    1
     8     7     8   ar
     9     8     9   ar
    10     9    10   ar
    11    10    12    1
    12    12    14    1
    13    14    15    1
    14    15    16    1
    15    16    17    1
    16    17    18    1
    17    18    19    1
    18    19    20    1
    19    20    21    1
    20    21    22    1
    21    22    23    1
    22    10    11   ar
    23     4     5   ar
    24     5     6   ar
    25    25    28    1
    26    28    29   ar
    27    29    30   ar
    28    30    31   ar
    29    31    32   ar
    30    32    33   ar
    31    33    34    1
    32     6     1   ar
    33    33    28   ar
    34    11     7   ar
    35    23    17    1
    36    26    27    1
    37    12    13    1
@<TRIPOS>MOLECULE
*****
 34 37 0 0 0
SMALL
GASTEIGER

@<TRIPOS>ATOM
      1 C         140.2034  143.6187  159.9424 C.ar    1  UNL1        0.0505
      2 C         140.6570  142.2041  159.7355 C.ar    1  UNL1        0.0148
      3 C         141.0780  141.3720  160.9104 C.ar    1  UNL1        0.0060
      4 C         141.0455  141.9546  162.2922 C.ar    1  UNL1        0.0553
      5 C         140.5918  143.3693  162.4991 C.ar    1  UNL1        0.0060
      6 C         140.1708  144.2014  161.3242 C.ar    1  UNL1        0.0148
      7 C         141.4665  141.1226  163.4671 C.ar    1  UNL1        0.2512
      8 N         142.0102  139.7257  163.4087 N.ar    1  UNL1       -0.1058
      9 N         142.2975  139.2812  164.8122 N.ar    1  UNL1       -0.0923
     10 C         141.9313  140.4032  165.7380 C.ar    1  UNL1        0.3086
     11 O         141.4178  141.5412  164.9066 O.2     1  UNL1       -0.4048
     12 N         142.0568  140.3895  167.2327 N.pl3   1  UNL1       -0.2871
     13 H         142.9237  140.5859  167.6557 H       1  UNL1        0.1512
     14 C         140.8612  140.0765  168.0827 C.3     1  UNL1        0.0925
     15 C         139.4792  140.2393  167.5224 C.3     1  UNL1        0.0386
     16 C         138.8227  139.0990  166.8024 C.3     1  UNL1        0.0738
     17 N         138.5918  139.1798  165.3225 N.3     1  UNL1       -0.2726
     18 C         138.0478  140.4839  164.8190 C.3     1  UNL1        0.0721
     19 C         137.7130  140.8761  163.4103 C.3     1  UNL1        0.0173
     20 C         137.8397  140.0612  162.1575 C.3     1  UNL1        0.0015
     21 C         138.3323  138.6527  162.0036 C.3     1  UNL1        0.0015
     22 C         138.8200  137.7114  163.0648 C.3     1  UNL1        0.0173
     23 C         138.9355  137.9460  164.5418 C.3     1  UNL1        0.0721
     24 O         142.2107  145.3433  158.5292 O.2     1  UNL1       -0.2697
     25 C         140.7860  145.3130  158.0609 C.2     1  UNL1        0.2517
     26 N         139.7824  144.4507  158.7675 N.am    1  UNL1       -0.2803
     27 H         138.8473  144.4309  158.4600 H       1  UNL1        0.1552
     28 C         140.3650  146.1451  156.8860 C.ar    1  UNL1        0.0811
     29 C         139.2856  147.1746  157.0444 C.ar    1  UNL1        0.0068
     30 C         138.8646  148.0066  155.8694 C.ar    1  UNL1        0.0003
     31 C         139.5230  147.8091  154.5362 C.ar    1  UNL1        0.0023
     32 C         140.6023  146.7796  154.3778 C.ar    1  UNL1        0.0298
     33 C         141.0234  145.9476  155.5527 C.ar    1  UNL1        0.1445
     34 F         142.1027  144.9181  155.3944 F       1  UNL1       -0.2040
@<TRIPOS>BOND
     1    24    25    2
     2    25    26   am
     3    26     1    1
     4     1     2   ar
     5     2     3   ar
     6     3     4   ar
     7     4     7    1
     8     7     8   ar
     9     8     9   ar
    10     9    10   ar
    11    10    12    1
    12    12    14    1
    13    14    15    1
    14    15    16    1
    15    16    17    1
    16    17    18    1
    17    18    19    1
    18    19    20    1
    19    20    21    1
    20    21    22    1
    21    22    23    1
    22    10    11   ar
    23     4     5   ar
    24     5     6   ar
    25    25    28    1
    26    28    29   ar
    27    29    30   ar
    28    30    31   ar
    29    31    32   ar
    30    32    33   ar
    31    33    34    1
    32     6     1   ar
    33    33    28   ar
    34    11     7   ar
    35    23    17    1
    36    26    27    1
    37    12    13    1
@<TRIPOS>MOLECULE
*****
 34 37 0 0 0
SMALL
GASTEIGER

@<TRIPOS>ATOM
      1 C         140.3860  145.5447  157.6632 C.ar    1  UNL1        0.0505
      2 C         140.2029  145.6596  159.1475 C.ar    1  UNL1        0.0148
      3 C         140.1390  144.4224  159.9933 C.ar    1  UNL1        0.0060
      4 C         140.2582  143.0704  159.3548 C.ar    1  UNL1        0.0553
      5 C         140.4412  142.9555  157.8704 C.ar    1  UNL1        0.0060
      6 C         140.5052  144.1927  157.0246 C.ar    1  UNL1        0.0148
      7 C         140.1943  141.8333  160.2005 C.ar    1  UNL1        0.2512
      8 N         139.4845  140.5597  159.8477 N.ar    1  UNL1       -0.1058
      9 N         139.6805  139.5918  160.9767 N.ar    1  UNL1       -0.0923
     10 C         140.5113  140.2671  162.0273 C.ar    1  UNL1        0.3086
     11 O         140.8288  141.6524  161.5476 O.2     1  UNL1       -0.4048
     12 N         140.9479  139.6631  163.3291 N.pl3   1  UNL1       -0.2871
     13 H         141.8089  139.9242  163.7287 H       1  UNL1        0.1512
     14 C         140.0726  138.6612  164.0219 C.3     1  UNL1        0.0925
     15 C         139.2903  139.0622  165.2374 C.3     1  UNL1        0.0386
     16 C         138.1623  140.0431  165.1134 C.3     1  UNL1        0.0738
     17 N         138.4423  141.4616  164.7141 N.3     1  UNL1       -0.2726
     18 C         137.6580  141.9747  163.5428 C.3     1  UNL1        0.0721
     19 C         137.7073  143.3325  162.9069 C.3     1  UNL1        0.0173
     20 C         138.5528  144.5122  163.2853 C.3     1  UNL1        0.0015
     21 C         139.5579  144.6258  164.3929 C.3     1  UNL1        0.0015
     22 C         139.9658  143.5875  165.3958 C.3     1  UNL1        0.0173
     23 C         139.4692  142.1793  165.5386 C.3     1  UNL1        0.0721
     24 O         138.2334  146.0969  155.6478 O.2     1  UNL1       -0.2697
     25 C         139.3736  147.0580  155.8098 C.2     1  UNL1        0.2517
     26 N         140.4499  146.7819  156.8175 N.am    1  UNL1       -0.2803
     27 H         141.1983  147.4127  156.9238 H       1  UNL1        0.1552
     28 C         139.4375  148.2952  154.9640 C.ar    1  UNL1        0.0811
     29 C         140.0635  148.2410  153.6019 C.ar    1  UNL1        0.0068
     30 C         140.1274  149.4781  152.7561 C.ar    1  UNL1        0.0003
     31 C         139.5654  150.7695  153.2725 C.ar    1  UNL1        0.0023
     32 C         138.9394  150.8237  154.6346 C.ar    1  UNL1        0.0298
     33 C         138.8755  149.5865  155.4803 C.ar    1  UNL1        0.1445
     34 F         138.2496  149.6406  156.8424 F       1  UNL1       -0.2040
@<TRIPOS>BOND
     1    24    25    2
     2    25    26   am
     3    26     1    1
     4     1     2   ar
     5     2     3   ar
     6     3     4   ar
     7     4     7    1
     8     7     8   ar
     9     8     9   ar
    10     9    10   ar
    11    10    12    1
    12    12    14    1
    13    14    15    1
    14    15    16    1
    15    16    17    1
    16    17    18    1
    17    18    19    1
    18    19    20    1
    19    20    21    1
    20    21    22    1
    21    22    23    1
    22    10    11   ar
    23     4     5   ar
    24     5     6   ar
    25    25    28    1
    26    28    29   ar
    27    29    30   ar
    28    30    31   ar
    29    31    32   ar
    30    32    33   ar
    31    33    34    1
    32     6     1   ar
    33    33    28   ar
    34    11     7   ar
    35    23    17    1
    36    26    27    1
    37    12    13    1
@<TRIPOS>MOLECULE
*****
 34 37 0 0 0
SMALL
GASTEIGER

@<TRIPOS>ATOM
      1 C         144.1637  142.9878  158.5462 C.ar    1  UNL1        0.0505
      2 C         144.5530  142.3829  159.8623 C.ar    1  UNL1        0.0148
      3 C         143.5789  142.3779  161.0030 C.ar    1  UNL1        0.0060
      4 C         142.2154  142.9779  160.8275 C.ar    1  UNL1        0.0553
      5 C         141.8260  143.5829  159.5112 C.ar    1  UNL1        0.0060
      6 C         142.8002  143.5879  158.3706 C.ar    1  UNL1        0.0148
      7 C         141.2413  142.9729  161.9681 C.ar    1  UNL1        0.2512
      8 N         140.0464  143.8685  162.1110 N.ar    1  UNL1       -0.1058
      9 N         139.3577  143.5205  163.3973 N.ar    1  UNL1       -0.0923
     10 C         140.1269  142.4100  164.0493 C.ar    1  UNL1        0.3086
     11 O         141.2909  142.0716  163.1660 O.2     1  UNL1       -0.4048
     12 N         139.7908  141.7533  165.3554 N.pl3   1  UNL1       -0.2871
     13 H         139.6196  142.3037  166.1535 H       1  UNL1        0.1512
     14 C         139.7156  140.2579  165.4454 C.3     1  UNL1        0.0925
     15 C         140.6976  139.5074  166.2954 C.3     1  UNL1        0.0386
     16 C         141.8762  140.2215  166.8879 C.3     1  UNL1        0.0738
     17 N         142.9709  140.7294  165.9971 N.3     1  UNL1       -0.2726
     18 C         143.2324  142.2050  166.0640 C.3     1  UNL1        0.0721
     19 C         144.2470  143.0102  165.3074 C.3     1  UNL1        0.0173
     20 C         145.2505  142.5388  164.2973 C.3     1  UNL1        0.0015
     21 C         145.4874  141.1458  163.7940 C.3     1  UNL1        0.0015
     22 C         144.7793  139.8800  164.1767 C.3     1  UNL1        0.0173
     23 C         143.6593  139.6948  165.1572 C.3     1  UNL1        0.0721
     24 O         144.9965  140.4019  157.2735 O.2     1  UNL1       -0.2697
     25 C         145.5542  141.6999  156.7692 C.2     1  UNL1        0.2517
     26 N         145.1378  142.9928  157.4056 N.am    1  UNL1       -0.2803
     27 H         145.5039  143.8447  157.0746 H       1  UNL1        0.1552
     28 C         146.5284  141.7048  155.6286 C.ar    1  UNL1        0.0811
     29 C         146.0814  141.2878  154.2588 C.ar    1  UNL1        0.0068
     30 C         147.0555  141.2927  153.1182 C.ar    1  UNL1        0.0003
     31 C         148.4766  141.7148  153.3474 C.ar    1  UNL1        0.0023
     32 C         148.9235  142.1318  154.7171 C.ar    1  UNL1        0.0298
     33 C         147.9494  142.1269  155.8578 C.ar    1  UNL1        0.1445
     34 F         148.3962  142.5439  157.2275 F       1  UNL1       -0.2040
@<TRIPOS>BOND
     1    24    25    2
     2    25    26   am
     3    26     1    1
     4     1     2   ar
     5     2     3   ar
     6     3     4   ar
     7     4     7    1
     8     7     8   ar
     9     8     9   ar
    10     9    10   ar
    11    10    12    1
    12    12    14    1
    13    14    15    1
    14    15    16    1
    15    16    17    1
    16    17    18    1
    17    18    19    1
    18    19    20    1
    19    20    21    1
    20    21    22    1
    21    22    23    1
    22    10    11   ar
    23     4     5   ar
    24     5     6   ar
    25    25    28    1
    26    28    29   ar
    27    29    30   ar
    28    30    31   ar
    29    31    32   ar
    30    32    33   ar
    31    33    34    1
    32     6     1   ar
    33    33    28   ar
    34    11     7   ar
    35    23    17    1
    36    26    27    1
    37    12    13    1
@<TRIPOS>MOLECULE
*****
 34 37 0 0 0
SMALL
GASTEIGER

@<TRIPOS>ATOM
      1 C         142.6201  138.0051  158.2470 C.ar    1  UNL1        0.0505
      2 C         142.9909  137.6737  159.6620 C.ar    1  UNL1        0.0148
      3 C         143.4474  138.7590  160.5915 C.ar    1  UNL1        0.0060
      4 C         143.5331  140.1756  160.1059 C.ar    1  UNL1        0.0553
      5 C         143.1622  140.5069  158.6906 C.ar    1  UNL1        0.0060
      6 C         142.7058  139.4216  157.7612 C.ar    1  UNL1        0.0148
      7 C         143.9895  141.2608  161.0352 C.ar    1  UNL1        0.2512
      8 N         145.0289  141.1234  162.1081 N.ar    1  UNL1       -0.1058
      9 N         145.1685  142.4517  162.7909 N.ar    1  UNL1       -0.0923
     10 C         144.2155  143.4099  162.1401 C.ar    1  UNL1        0.3086
     11 O         143.4869  142.6739  161.0551 O.2     1  UNL1       -0.4048
     12 N         144.0247  144.8512  162.5095 N.pl3   1  UNL1       -0.2871
     13 H         144.4461  145.5579  161.9690 H       1  UNL1        0.1512
     14 C         143.1917  145.2155  163.7026 C.3     1  UNL1        0.0925
     15 C         142.1057  144.2920  164.1694 C.3     1  UNL1        0.0386
     16 C         140.7863  144.2650  163.4564 C.3     1  UNL1        0.0738
     17 N         140.4911  143.1777  162.4661 N.3     1  UNL1       -0.2726
     18 C         140.0885  143.6372  161.0960 C.3     1  UNL1        0.0721
     19 C         139.7329  142.8072  159.8982 C.3     1  UNL1        0.0173
     20 C         139.6920  141.3130  159.7746 C.3     1  UNL1        0.0015
     21 C         139.9966  140.2794  160.8182 C.3     1  UNL1        0.0015
     22 C         140.4173  140.4851  162.2433 C.3     1  UNL1        0.0173
     23 C         140.6374  141.7750  162.9766 C.3     1  UNL1        0.0721
     24 O         144.3821  137.1306  155.9817 O.2     1  UNL1       -0.2697
     25 C         143.0446  136.4826  156.1849 C.2     1  UNL1        0.2517
     26 N         142.1636  136.9198  157.3175 N.am    1  UNL1       -0.2803
     27 H         141.2858  136.4945  157.4509 H       1  UNL1        0.1552
     28 C         142.5881  135.3973  155.2555 C.ar    1  UNL1        0.0811
     29 C         142.3029  135.7127  153.8170 C.ar    1  UNL1        0.0068
     30 C         141.8464  134.6274  152.8876 C.ar    1  UNL1        0.0003
     31 C         141.6752  133.2269  153.3966 C.ar    1  UNL1        0.0023
     32 C         141.9605  132.9115  154.8351 C.ar    1  UNL1        0.0298
     33 C         142.4169  133.9968  155.7645 C.ar    1  UNL1        0.1445
     34 F         142.7022  133.6815  157.2030 F       1  UNL1       -0.2040
@<TRIPOS>BOND
     1    24    25    2
     2    25    26   am
     3    26     1    1
     4     1     2   ar
     5     2     3   ar
     6     3     4   ar
     7     4     7    1
     8     7     8   ar
     9     8     9   ar
    10     9    10   ar
    11    10    12    1
    12    12    14    1
    13    14    15    1
    14    15    16    1
    15    16    17    1
    16    17    18    1
    17    18    19    1
    18    19    20    1
    19    20    21    1
    20    21    22    1
    21    22    23    1
    22    10    11   ar
    23     4     5   ar
    24     5     6   ar
    25    25    28    1
    26    28    29   ar
    27    29    30   ar
    28    30    31   ar
    29    31    32   ar
    30    32    33   ar
    31    33    34    1
    32     6     1   ar
    33    33    28   ar
    34    11     7   ar
    35    23    17    1
    36    26    27    1
    37    12    13    1
