@<TRIPOS>MOLECULE
*****
 33 36 0 0 0
SMALL
GASTEIGER

@<TRIPOS>ATOM
      1 N         140.5722  141.0806  168.3906 N.ar    1  UNL1       -0.2394
      2 N         141.2679  141.8766  167.3265 N.ar    1  UNL1       -0.1680
      3 C         140.5954  141.5876  166.0172 C.ar    1  UNL1        0.1094
      4 C         139.4841  140.6129  166.2721 C.ar    1  UNL1        0.1032
      5 C         139.4698  140.2995  167.7389 C.ar    1  UNL1        0.1280
      6 N         138.5198  139.3685  168.4323 N.pl3   1  UNL1       -0.3427
      7 H         137.8258  138.8987  167.9157 H       1  UNL1        0.1437
      8 H         138.5903  139.2273  169.4041 H       1  UNL1        0.1437
      9 C         140.9687  142.1709  164.6866 C.ar    1  UNL1        0.0387
     10 C         142.0907  141.5704  163.8926 C.ar    1  UNL1        0.1003
     11 N         142.4639  142.1538  162.5621 N.ar    1  UNL1       -0.2437
     12 C         141.7152  143.3376  162.0255 C.ar    1  UNL1        0.0843
     13 C         142.0885  143.9209  160.6949 C.ar    1  UNL1        0.0560
     14 C         141.3397  145.1048  160.1583 C.ar    1  UNL1        0.1399
     15 C         140.2177  145.7053  160.9524 C.ar    1  UNL1        0.0370
     16 C         139.8444  145.1219  162.2829 C.ar    1  UNL1        0.0046
     17 C         140.5932  143.9381  162.8195 C.ar    1  UNL1        0.0179
     18 C         140.2199  143.3548  164.1500 C.ar    1  UNL1        0.0046
     19 O         141.7130  145.6881  158.8278 O.3     1  UNL1       -0.4791
     20 C         140.7068  145.7243  157.7159 C.3     1  UNL1        0.1661
     21 C         139.8213  145.0059  156.7413 C.3     1  UNL1        0.0472
     22 C         139.8496  146.5054  156.7646 C.3     1  UNL1        0.0472
     23 C         138.5510  140.0503  165.2412 C.2     1  UNL1        0.2470
     24 N         137.5555  140.9442  164.5631 N.am    1  UNL1       -0.3252
     25 O         138.6134  138.5937  164.8884 O.2     1  UNL1       -0.2702
     26 H         137.5145  141.9002  164.7946 H       1  UNL1        0.1453
     27 H         136.9431  140.5748  163.8865 H       1  UNL1        0.1453
     28 C         141.8310  139.8992  169.6234 C.3     1  UNL1        0.0270
     29 C         140.9182  141.0678  169.8501 C.3     1  UNL1        0.1147
     30 C         140.0054  142.2363  170.0767 C.3     1  UNL1        0.0270
     31 C         141.2642  141.0549  171.3095 C.3     1  UNL1        0.1594
     32 O         142.0485  142.1868  171.9043 O.3     1  UNL1       -0.3800
     33 H         142.9415  142.1954  171.5258 H       1  UNL1        0.2105
@<TRIPOS>BOND
     1    28    29    1
     2    29    30    1
     3    29    31    1
     4    31    32    1
     5    29     1    1
     6     1     2   ar
     7     2     3   ar
     8     3     9    1
     9     9    10   ar
    10    10    11   ar
    11    11    12   ar
    12    12    13   ar
    13    13    14   ar
    14    14    19    1
    15    19    20    1
    16    20    21    1
    17    21    22    1
    18    14    15   ar
    19    15    16   ar
    20    16    17   ar
    21    17    18   ar
    22     3     4   ar
    23     4    23    1
    24    23    24   am
    25    23    25    2
    26     4     5   ar
    27     5     6    1
    28     5     1   ar
    29    18     9   ar
    30    17    12   ar
    31    22    20    1
    32    32    33    1
    33    24    26    1
    34    24    27    1
    35     6     7    1
    36     6     8    1
@<TRIPOS>MOLECULE
*****
 33 36 0 0 0
SMALL
GASTEIGER

@<TRIPOS>ATOM
      1 N         140.6611  141.5780  168.0761 N.ar    1  UNL1       -0.2394
      2 N         140.5012  141.8809  166.6158 N.ar    1  UNL1       -0.1680
      3 C         139.5762  140.8565  166.0284 C.ar    1  UNL1        0.1094
      4 C         139.1644  139.9204  167.1257 C.ar    1  UNL1        0.1032
      5 C         139.8349  140.3663  168.3913 C.ar    1  UNL1        0.1280
      6 N         139.7025  139.7149  169.7360 N.pl3   1  UNL1       -0.3427
      7 H         139.1332  138.9188  169.8434 H       1  UNL1        0.1437
      8 H         140.1848  140.0834  170.5111 H       1  UNL1        0.1437
      9 C         139.1396  140.7814  164.5953 C.ar    1  UNL1        0.0387
     10 C         137.8300  141.3818  164.1777 C.ar    1  UNL1        0.1003
     11 N         137.3935  141.3067  162.7446 N.ar    1  UNL1       -0.2437
     12 C         138.2667  140.6311  161.7291 C.ar    1  UNL1        0.0843
     13 C         137.8301  140.5560  160.2959 C.ar    1  UNL1        0.0560
     14 C         138.7032  139.8805  159.2804 C.ar    1  UNL1        0.1399
     15 C         140.0129  139.2801  159.6980 C.ar    1  UNL1        0.0370
     16 C         140.4494  139.3552  161.1311 C.ar    1  UNL1        0.0046
     17 C         139.5763  140.0307  162.1466 C.ar    1  UNL1        0.0179
     18 C         140.0127  140.1059  163.5797 C.ar    1  UNL1        0.0046
     19 O         138.2667  139.8054  157.8473 O.3     1  UNL1       -0.4791
     20 C         137.5525  140.9652  157.2190 C.3     1  UNL1        0.1661
     21 C         137.3944  142.4446  157.0283 C.3     1  UNL1        0.0472
     22 C         136.4736  141.4946  156.3215 C.3     1  UNL1        0.0472
     23 C         138.2438  138.7449  166.9827 C.2     1  UNL1        0.2470
     24 N         138.3300  137.8680  165.7688 N.am    1  UNL1       -0.3252
     25 O         137.2369  138.4461  168.0537 O.2     1  UNL1       -0.2702
     26 H         138.9908  138.0640  165.0659 H       1  UNL1        0.1453
     27 H         137.7257  137.0964  165.6750 H       1  UNL1        0.1453
     28 C         142.6599  141.4413  168.7732 C.3     1  UNL1        0.0270
     29 C         141.4998  142.3510  169.0503 C.3     1  UNL1        0.1147
     30 C         140.3398  143.2606  169.3273 C.3     1  UNL1        0.0270
     31 C         142.3386  143.1239  170.0244 C.3     1  UNL1        0.1594
     32 O         142.4639  142.6548  171.4436 O.3     1  UNL1       -0.3800
     33 H         141.6019  142.7210  171.8833 H       1  UNL1        0.2105
@<TRIPOS>BOND
     1    28    29    1
     2    29    30    1
     3    29    31    1
     4    31    32    1
     5    29     1    1
     6     1     2   ar
     7     2     3   ar
     8     3     9    1
     9     9    10   ar
    10    10    11   ar
    11    11    12   ar
    12    12    13   ar
    13    13    14   ar
    14    14    19    1
    15    19    20    1
    16    20    21    1
    17    21    22    1
    18    14    15   ar
    19    15    16   ar
    20    16    17   ar
    21    17    18   ar
    22     3     4   ar
    23     4    23    1
    24    23    24   am
    25    23    25    2
    26     4     5   ar
    27     5     6    1
    28     5     1   ar
    29    18     9   ar
    30    17    12   ar
    31    22    20    1
    32    32    33    1
    33    24    26    1
    34    24    27    1
    35     6     7    1
    36     6     8    1
@<TRIPOS>MOLECULE
*****
 33 36 0 0 0
SMALL
GASTEIGER

@<TRIPOS>ATOM
      1 N         141.6971  139.9226  168.1758 N.ar    1  UNL1       -0.2394
      2 N         142.3954  139.6300  166.8809 N.ar    1  UNL1       -0.1680
      3 C         141.3509  139.3096  165.8530 C.ar    1  UNL1        0.1094
      4 C         140.0071  139.4042  166.5127 C.ar    1  UNL1        0.1032
      5 C         140.2210  139.7830  167.9482 C.ar    1  UNL1        0.1280
      6 N         139.1473  139.9866  168.9758 N.pl3   1  UNL1       -0.3427
      7 H         138.2013  139.8712  168.7288 H       1  UNL1        0.1437
      8 H         139.3887  140.2355  169.8972 H       1  UNL1        0.1437
      9 C         141.6056  138.9566  164.4175 C.ar    1  UNL1        0.0387
     10 C         141.1048  137.6551  163.8650 C.ar    1  UNL1        0.1003
     11 N         141.3595  137.3021  162.4296 N.ar    1  UNL1       -0.2437
     12 C         142.1150  138.2507  161.5467 C.ar    1  UNL1        0.0843
     13 C         142.3697  137.8977  160.1112 C.ar    1  UNL1        0.0560
     14 C         143.1251  138.8462  159.2283 C.ar    1  UNL1        0.1399
     15 C         143.6259  140.1478  159.7808 C.ar    1  UNL1        0.0370
     16 C         143.3712  140.5007  161.2163 C.ar    1  UNL1        0.0046
     17 C         142.6157  139.5522  162.0992 C.ar    1  UNL1        0.0179
     18 C         142.3610  139.9051  163.5346 C.ar    1  UNL1        0.0046
     19 O         143.3798  138.4933  157.7928 O.3     1  UNL1       -0.4791
     20 C         142.7007  137.3039  157.1810 C.3     1  UNL1        0.1661
     21 C         141.5043  136.6912  156.5152 C.3     1  UNL1        0.0472
     22 C         142.7207  135.8567  156.7871 C.3     1  UNL1        0.0472
     23 C         138.6819  139.1623  165.8528 C.2     1  UNL1        0.2470
     24 N         137.9686  140.2896  165.1671 N.am    1  UNL1       -0.3252
     25 O         138.0701  137.7929  165.8785 O.2     1  UNL1       -0.2702
     26 H         138.3701  141.1884  165.1502 H       1  UNL1        0.1453
     27 H         137.0989  140.1308  164.7340 H       1  UNL1        0.1453
     28 C         142.2569  141.7428  169.1104 C.3     1  UNL1        0.0270
     29 C         142.3586  140.2903  169.4708 C.3     1  UNL1        0.1147
     30 C         142.4604  138.8378  169.8311 C.3     1  UNL1        0.0270
     31 C         143.0202  140.6579  170.7658 C.3     1  UNL1        0.1594
     32 O         142.2057  140.7616  172.0211 O.3     1  UNL1       -0.3800
     33 H         141.5822  141.5004  171.9419 H       1  UNL1        0.2105
@<TRIPOS>BOND
     1    28    29    1
     2    29    30    1
     3    29    31    1
     4    31    32    1
     5    29     1    1
     6     1     2   ar
     7     2     3   ar
     8     3     9    1
     9     9    10   ar
    10    10    11   ar
    11    11    12   ar
    12    12    13   ar
    13    13    14   ar
    14    14    19    1
    15    19    20    1
    16    20    21    1
    17    21    22    1
    18    14    15   ar
    19    15    16   ar
    20    16    17   ar
    21    17    18   ar
    22     3     4   ar
    23     4    23    1
    24    23    24   am
    25    23    25    2
    26     4     5   ar
    27     5     6    1
    28     5     1   ar
    29    18     9   ar
    30    17    12   ar
    31    22    20    1
    32    32    33    1
    33    24    26    1
    34    24    27    1
    35     6     7    1
    36     6     8    1
@<TRIPOS>MOLECULE
*****
 33 36 0 0 0
SMALL
GASTEIGER

@<TRIPOS>ATOM
      1 N         140.8321  140.9139  168.4626 N.ar    1  UNL1       -0.2394
      2 N         141.6453  141.1724  167.2289 N.ar    1  UNL1       -0.1680
      3 C         140.9076  140.5941  166.0578 C.ar    1  UNL1        0.1094
      4 C         139.6385  139.9782  166.5677 C.ar    1  UNL1        0.1032
      5 C         139.5918  140.1758  168.0539 C.ar    1  UNL1        0.1280
      6 N         138.4970  139.7161  168.9705 N.pl3   1  UNL1       -0.3427
      7 H         137.7185  139.2365  168.6056 H       1  UNL1        0.1437
      8 H         138.5570  139.8939  169.9369 H       1  UNL1        0.1437
      9 C         141.3597  140.6261  164.6279 C.ar    1  UNL1        0.0387
     10 C         140.9201  141.7420  163.7271 C.ar    1  UNL1        0.1003
     11 N         141.3722  141.7740  162.2973 N.ar    1  UNL1       -0.2437
     12 C         142.2640  140.6901  161.7682 C.ar    1  UNL1        0.0843
     13 C         142.7162  140.7221  160.3383 C.ar    1  UNL1        0.0560
     14 C         143.6080  139.6382  159.8093 C.ar    1  UNL1        0.1399
     15 C         144.0477  138.5223  160.7102 C.ar    1  UNL1        0.0370
     16 C         143.5955  138.4904  162.1400 C.ar    1  UNL1        0.0046
     17 C         142.7037  139.5742  162.6690 C.ar    1  UNL1        0.0179
     18 C         142.2516  139.5422  164.0989 C.ar    1  UNL1        0.0046
     19 O         144.0601  139.6702  158.3794 O.3     1  UNL1       -0.4791
     20 C         144.4438  140.9733  157.7431 C.3     1  UNL1        0.1661
     21 C         144.0609  142.3260  157.2200 C.3     1  UNL1        0.0472
     22 C         145.4911  141.8775  157.1639 C.3     1  UNL1        0.0472
     23 C         138.5986  139.2861  165.7372 C.2     1  UNL1        0.2470
     24 N         137.7267  140.0814  164.8114 N.am    1  UNL1       -0.3252
     25 O         138.4307  137.7985  165.8326 O.2     1  UNL1       -0.2702
     26 H         137.8369  141.0577  164.7488 H       1  UNL1        0.1453
     27 H         137.0443  139.6271  164.2664 H       1  UNL1        0.1453
     28 C         140.6387  142.6912  169.6044 C.3     1  UNL1        0.0270
     29 C         141.1953  141.3218  169.8596 C.3     1  UNL1        0.1147
     30 C         141.7519  139.9525  170.1147 C.3     1  UNL1        0.0270
     31 C         141.5585  141.7298  171.2566 C.3     1  UNL1        0.1594
     32 O         140.4856  142.1419  172.2204 O.3     1  UNL1       -0.3800
     33 H         140.0735  142.9645  171.9131 H       1  UNL1        0.2105
@<TRIPOS>BOND
     1    28    29    1
     2    29    30    1
     3    29    31    1
     4    31    32    1
     5    29     1    1
     6     1     2   ar
     7     2     3   ar
     8     3     9    1
     9     9    10   ar
    10    10    11   ar
    11    11    12   ar
    12    12    13   ar
    13    13    14   ar
    14    14    19    1
    15    19    20    1
    16    20    21    1
    17    21    22    1
    18    14    15   ar
    19    15    16   ar
    20    16    17   ar
    21    17    18   ar
    22     3     4   ar
    23     4    23    1
    24    23    24   am
    25    23    25    2
    26     4     5   ar
    27     5     6    1
    28     5     1   ar
    29    18     9   ar
    30    17    12   ar
    31    22    20    1
    32    32    33    1
    33    24    26    1
    34    24    27    1
    35     6     7    1
    36     6     8    1
@<TRIPOS>MOLECULE
*****
 33 36 0 0 0
SMALL
GASTEIGER

@<TRIPOS>ATOM
      1 N         140.6758  140.9680  168.3053 N.ar    1  UNL1       -0.2394
      2 N         139.9338  140.7453  167.0208 N.ar    1  UNL1       -0.1680
      3 C         140.7863  139.8847  166.1362 C.ar    1  UNL1        0.1094
      4 C         142.0553  139.5755  166.8739 C.ar    1  UNL1        0.1032
      5 C         141.9870  140.2450  168.2144 C.ar    1  UNL1        0.1280
      6 N         143.0443  140.1996  169.2775 N.pl3   1  UNL1       -0.3427
      7 H         143.8758  139.6955  169.1235 H       1  UNL1        0.1437
      8 H         142.9066  140.6738  170.1292 H       1  UNL1        0.1437
      9 C         140.4321  139.4156  164.7561 C.ar    1  UNL1        0.0387
     10 C         139.8245  138.0586  164.5581 C.ar    1  UNL1        0.1003
     11 N         139.4703  137.5896  163.1781 N.ar    1  UNL1       -0.2437
     12 C         139.7236  138.4776  161.9961 C.ar    1  UNL1        0.0843
     13 C         139.3693  138.0086  160.6160 C.ar    1  UNL1        0.0560
     14 C         139.6226  138.8966  159.4339 C.ar    1  UNL1        0.1399
     15 C         140.2302  140.2537  159.6320 C.ar    1  UNL1        0.0370
     16 C         140.5844  140.7227  161.0120 C.ar    1  UNL1        0.0046
     17 C         140.3311  139.8347  162.1940 C.ar    1  UNL1        0.0179
     18 C         140.6854  140.3037  163.5741 C.ar    1  UNL1        0.0046
     19 O         139.2684  138.4276  158.0539 O.3     1  UNL1       -0.4791
     20 C         140.3493  137.9926  157.1091 C.3     1  UNL1        0.1661
     21 C         141.1570  136.8999  156.4738 C.3     1  UNL1        0.0472
     22 C         141.4135  138.3318  156.1080 C.3     1  UNL1        0.0472
     23 C         143.1928  138.7430  166.3611 C.2     1  UNL1        0.2470
     24 N         143.5881  138.8217  164.9163 N.am    1  UNL1       -0.3252
     25 O         143.9350  137.8318  167.2932 O.2     1  UNL1       -0.2702
     26 H         143.1010  139.4197  164.3045 H       1  UNL1        0.1453
     27 H         144.3348  138.2753  164.5798 H       1  UNL1        0.1453
     28 C         140.9114  142.9769  168.9447 C.3     1  UNL1        0.0270
     29 C         140.1917  141.7724  169.4751 C.3     1  UNL1        0.1147
     30 C         139.4721  140.5680  170.0055 C.3     1  UNL1        0.0270
     31 C         139.7076  142.5768  170.6449 C.3     1  UNL1        0.1594
     32 O         139.7510  144.0753  170.5941 O.3     1  UNL1       -0.3800
     33 H         140.6742  144.3713  170.5645 H       1  UNL1        0.2105
@<TRIPOS>BOND
     1    28    29    1
     2    29    30    1
     3    29    31    1
     4    31    32    1
     5    29     1    1
     6     1     2   ar
     7     2     3   ar
     8     3     9    1
     9     9    10   ar
    10    10    11   ar
    11    11    12   ar
    12    12    13   ar
    13    13    14   ar
    14    14    19    1
    15    19    20    1
    16    20    21    1
    17    21    22    1
    18    14    15   ar
    19    15    16   ar
    20    16    17   ar
    21    17    18   ar
    22     3     4   ar
    23     4    23    1
    24    23    24   am
    25    23    25    2
    26     4     5   ar
    27     5     6    1
    28     5     1   ar
    29    18     9   ar
    30    17    12   ar
    31    22    20    1
    32    32    33    1
    33    24    26    1
    34    24    27    1
    35     6     7    1
    36     6     8    1
@<TRIPOS>MOLECULE
*****
 33 36 0 0 0
SMALL
GASTEIGER

@<TRIPOS>ATOM
      1 N         140.9714  142.3337  167.9976 N.ar    1  UNL1       -0.2394
      2 N         140.2188  142.3749  166.7007 N.ar    1  UNL1       -0.1680
      3 C         141.2183  142.4894  165.5881 C.ar    1  UNL1        0.1094
      4 C         142.5887  142.5189  166.1974 C.ar    1  UNL1        0.1032
      5 C         142.4361  142.4228  167.6865 C.ar    1  UNL1        0.1280
      6 N         143.5523  142.4166  168.6886 N.pl3   1  UNL1       -0.3427
      7 H         144.4867  142.4797  168.3850 H       1  UNL1        0.1437
      8 H         143.3504  142.3496  169.6498 H       1  UNL1        0.1437
      9 C         140.9028  142.5616  164.1234 C.ar    1  UNL1        0.0387
     10 C         140.5628  141.3118  163.3669 C.ar    1  UNL1        0.1003
     11 N         140.2473  141.3841  161.9023 N.ar    1  UNL1       -0.2437
     12 C         140.2718  142.7062  161.1942 C.ar    1  UNL1        0.0843
     13 C         139.9563  142.7784  159.7294 C.ar    1  UNL1        0.0560
     14 C         139.9808  144.1005  159.0213 C.ar    1  UNL1        0.1399
     15 C         140.3208  145.3503  159.7779 C.ar    1  UNL1        0.0370
     16 C         140.6362  145.2781  161.2425 C.ar    1  UNL1        0.0046
     17 C         140.6118  143.9560  161.9506 C.ar    1  UNL1        0.0179
     18 C         140.9273  143.8837  163.4153 C.ar    1  UNL1        0.0046
     19 O         139.6653  144.1727  157.5567 O.3     1  UNL1       -0.4791
     20 C         139.9344  145.4354  156.7929 C.3     1  UNL1        0.1661
     21 C         140.8820  146.3206  156.0389 C.3     1  UNL1        0.0472
     22 C         139.4529  146.7371  156.2240 C.3     1  UNL1        0.0472
     23 C         143.8842  142.6259  165.4489 C.2     1  UNL1        0.2470
     24 N         144.3639  141.4775  164.6118 N.am    1  UNL1       -0.3252
     25 O         144.7001  143.8816  165.5377 O.2     1  UNL1       -0.2702
     26 H         143.8284  140.6534  164.5535 H       1  UNL1        0.1453
     27 H         145.2142  141.5478  164.1206 H       1  UNL1        0.1453
     28 C         140.2969  140.7322  169.2142 C.3     1  UNL1        0.0270
     29 C         140.3657  142.2230  169.3654 C.3     1  UNL1        0.1147
     30 C         140.4346  143.7137  169.5166 C.3     1  UNL1        0.0270
     31 C         139.7600  142.1122  170.7332 C.3     1  UNL1        0.1594
     32 O         140.6182  142.2919  171.9502 O.3     1  UNL1       -0.3800
     33 H         141.2642  141.5700  171.9998 H       1  UNL1        0.2105
@<TRIPOS>BOND
     1    28    29    1
     2    29    30    1
     3    29    31    1
     4    31    32    1
     5    29     1    1
     6     1     2   ar
     7     2     3   ar
     8     3     9    1
     9     9    10   ar
    10    10    11   ar
    11    11    12   ar
    12    12    13   ar
    13    13    14   ar
    14    14    19    1
    15    19    20    1
    16    20    21    1
    17    21    22    1
    18    14    15   ar
    19    15    16   ar
    20    16    17   ar
    21    17    18   ar
    22     3     4   ar
    23     4    23    1
    24    23    24   am
    25    23    25    2
    26     4     5   ar
    27     5     6    1
    28     5     1   ar
    29    18     9   ar
    30    17    12   ar
    31    22    20    1
    32    32    33    1
    33    24    26    1
    34    24    27    1
    35     6     7    1
    36     6     8    1
@<TRIPOS>MOLECULE
*****
 33 36 0 0 0
SMALL
GASTEIGER

@<TRIPOS>ATOM
      1 N         142.5507  141.6268  168.1834 N.ar    1  UNL1       -0.2394
      2 N         142.8318  142.3185  166.8824 N.ar    1  UNL1       -0.1680
      3 C         143.2093  141.2740  165.8742 C.ar    1  UNL1        0.1094
      4 C         143.1615  139.9368  166.5520 C.ar    1  UNL1        0.1032
      5 C         142.7544  140.1548  167.9792 C.ar    1  UNL1        0.1280
      6 N         142.5815  139.0880  169.0195 N.pl3   1  UNL1       -0.3427
      7 H         142.7393  138.1443  168.7878 H       1  UNL1        0.1437
      8 H         142.3101  139.3317  169.9339 H       1  UNL1        0.1437
      9 C         143.5711  141.5231  164.4399 C.ar    1  UNL1        0.0387
     10 C         144.9642  141.2448  163.9586 C.ar    1  UNL1        0.1003
     11 N         145.3260  141.4939  162.5244 N.ar    1  UNL1       -0.2437
     12 C         144.2946  142.0213  161.5714 C.ar    1  UNL1        0.0843
     13 C         144.6564  142.2703  160.1372 C.ar    1  UNL1        0.0560
     14 C         143.6250  142.7977  159.1842 C.ar    1  UNL1        0.1399
     15 C         142.2318  143.0761  159.6656 C.ar    1  UNL1        0.0370
     16 C         141.8701  142.8270  161.0998 C.ar    1  UNL1        0.0046
     17 C         142.9015  142.2996  162.0527 C.ar    1  UNL1        0.0179
     18 C         142.5397  142.0505  163.4870 C.ar    1  UNL1        0.0046
     19 O         143.9868  143.0468  157.7500 O.3     1  UNL1       -0.4791
     20 C         145.0990  142.2691  157.1110 C.3     1  UNL1        0.1661
     21 C         145.5821  141.0428  156.3949 C.3     1  UNL1        0.0472
     22 C         146.5422  142.1484  156.7205 C.3     1  UNL1        0.0472
     23 C         143.4670  138.6138  165.9146 C.2     1  UNL1        0.2470
     24 N         144.4305  137.6698  166.5707 N.am    1  UNL1       -0.3252
     25 O         142.8089  138.2347  164.6210 O.2     1  UNL1       -0.2702
     26 H         144.8624  137.9185  167.4197 H       1  UNL1        0.1453
     27 H         144.6310  136.8015  166.1523 H       1  UNL1        0.1453
     28 C         143.5754  142.3694  169.8859 C.3     1  UNL1        0.0270
     29 C         142.1382  142.2905  169.4638 C.3     1  UNL1        0.1147
     30 C         140.7010  142.2117  169.0416 C.3     1  UNL1        0.0270
     31 C         141.7258  142.9543  170.7441 C.3     1  UNL1        0.1594
     32 O         142.1789  142.3934  172.0594 O.3     1  UNL1       -0.3800
     33 H         141.7791  141.5198  172.1933 H       1  UNL1        0.2105
@<TRIPOS>BOND
     1    28    29    1
     2    29    30    1
     3    29    31    1
     4    31    32    1
     5    29     1    1
     6     1     2   ar
     7     2     3   ar
     8     3     9    1
     9     9    10   ar
    10    10    11   ar
    11    11    12   ar
    12    12    13   ar
    13    13    14   ar
    14    14    19    1
    15    19    20    1
    16    20    21    1
    17    21    22    1
    18    14    15   ar
    19    15    16   ar
    20    16    17   ar
    21    17    18   ar
    22     3     4   ar
    23     4    23    1
    24    23    24   am
    25    23    25    2
    26     4     5   ar
    27     5     6    1
    28     5     1   ar
    29    18     9   ar
    30    17    12   ar
    31    22    20    1
    32    32    33    1
    33    24    26    1
    34    24    27    1
    35     6     7    1
    36     6     8    1
@<TRIPOS>MOLECULE
*****
 33 36 0 0 0
SMALL
GASTEIGER

@<TRIPOS>ATOM
      1 N         140.8180  140.7684  166.1262 N.ar    1  UNL1       -0.2394
      2 N         141.2237  141.8363  165.1541 N.ar    1  UNL1       -0.1680
      3 C         140.2327  141.8388  164.0280 C.ar    1  UNL1        0.1094
      4 C         139.2145  140.7725  164.3042 C.ar    1  UNL1        0.1032
      5 C         139.5762  140.1110  165.6009 C.ar    1  UNL1        0.1280
      6 N         138.8276  138.9889  166.2572 N.pl3   1  UNL1       -0.3427
      7 H         138.0186  138.6222  165.8325 H       1  UNL1        0.1437
      8 H         139.1451  138.6193  167.1126 H       1  UNL1        0.1437
      9 C         140.2559  142.7481  162.8352 C.ar    1  UNL1        0.0387
     10 C         139.2889  143.8911  162.7445 C.ar    1  UNL1        0.1003
     11 N         139.3121  144.8003  161.5517 N.ar    1  UNL1       -0.2437
     12 C         140.3024  144.5664  160.4496 C.ar    1  UNL1        0.0843
     13 C         140.3256  145.4757  159.2568 C.ar    1  UNL1        0.0560
     14 C         141.3158  145.2418  158.1546 C.ar    1  UNL1        0.1399
     15 C         142.2829  144.0986  158.2453 C.ar    1  UNL1        0.0370
     16 C         142.2596  143.1895  159.4381 C.ar    1  UNL1        0.0046
     17 C         141.2694  143.4233  160.5402 C.ar    1  UNL1        0.0179
     18 C         141.2461  142.5142  161.7330 C.ar    1  UNL1        0.0046
     19 O         141.3391  146.1509  156.9618 O.3     1  UNL1       -0.4791
     20 C         140.0518  146.6300  156.3587 C.3     1  UNL1        0.1661
     21 C         138.9406  146.4611  155.3654 C.3     1  UNL1        0.0472
     22 C         138.9337  147.6284  156.3073 C.3     1  UNL1        0.0472
     23 C         138.0407  140.4282  163.4361 C.2     1  UNL1        0.2470
     24 N         136.8555  141.3457  163.3787 N.am    1  UNL1       -0.3252
     25 O         138.0522  139.1662  162.6253 O.2     1  UNL1       -0.2702
     26 H         136.8480  142.1740  163.9108 H       1  UNL1        0.1453
     27 H         136.0852  141.1196  162.8089 H       1  UNL1        0.1453
     28 C         140.6380  141.3602  168.1553 C.3     1  UNL1        0.0270
     29 C         141.5291  140.4193  167.4000 C.3     1  UNL1        0.1147
     30 C         142.4201  139.4783  166.6446 C.3     1  UNL1        0.0270
     31 C         142.2402  140.0701  168.6737 C.3     1  UNL1        0.1594
     32 O         143.0165  138.7905  168.7727 O.3     1  UNL1       -0.3800
     33 H         142.4076  138.0376  168.7151 H       1  UNL1        0.2105
@<TRIPOS>BOND
     1    28    29    1
     2    29    30    1
     3    29    31    1
     4    31    32    1
     5    29     1    1
     6     1     2   ar
     7     2     3   ar
     8     3     9    1
     9     9    10   ar
    10    10    11   ar
    11    11    12   ar
    12    12    13   ar
    13    13    14   ar
    14    14    19    1
    15    19    20    1
    16    20    21    1
    17    21    22    1
    18    14    15   ar
    19    15    16   ar
    20    16    17   ar
    21    17    18   ar
    22     3     4   ar
    23     4    23    1
    24    23    24   am
    25    23    25    2
    26     4     5   ar
    27     5     6    1
    28     5     1   ar
    29    18     9   ar
    30    17    12   ar
    31    22    20    1
    32    32    33    1
    33    24    26    1
    34    24    27    1
    35     6     7    1
    36     6     8    1
@<TRIPOS>MOLECULE
*****
 33 36 0 0 0
SMALL
GASTEIGER

@<TRIPOS>ATOM
      1 N         140.5556  141.0190  168.2187 N.ar    1  UNL1       -0.2394
      2 N         139.7188  141.0455  166.9741 N.ar    1  UNL1       -0.1680
      3 C         140.3945  140.1909  165.9430 C.ar    1  UNL1        0.1094
      4 C         141.6488  139.6362  166.5503 C.ar    1  UNL1        0.1032
      5 C         141.7484  140.1480  167.9568 C.ar    1  UNL1        0.1280
      6 N         142.8478  139.8424  168.9304 N.pl3   1  UNL1       -0.3427
      7 H         143.5926  139.2564  168.6639 H       1  UNL1        0.1437
      8 H         142.8246  140.2279  169.8360 H       1  UNL1        0.1437
      9 C         139.9021  139.9358  164.5492 C.ar    1  UNL1        0.0387
     10 C         139.1144  138.6955  164.2473 C.ar    1  UNL1        0.1003
     11 N         138.6221  138.4404  162.8535 N.ar    1  UNL1       -0.2437
     12 C         138.9176  139.4256  161.7617 C.ar    1  UNL1        0.0843
     13 C         138.4253  139.1705  160.3679 C.ar    1  UNL1        0.0560
     14 C         138.7207  140.1557  159.2760 C.ar    1  UNL1        0.1399
     15 C         139.5085  141.3960  159.5780 C.ar    1  UNL1        0.0370
     16 C         140.0008  141.6511  160.9718 C.ar    1  UNL1        0.0046
     17 C         139.7053  140.6659  162.0636 C.ar    1  UNL1        0.0179
     18 C         140.1976  140.9210  163.4573 C.ar    1  UNL1        0.0046
     19 O         138.2284  139.9007  157.8823 O.3     1  UNL1       -0.4791
     20 C         137.4832  140.9717  157.1423 C.3     1  UNL1        0.1661
     21 C         137.2771  142.4207  156.8137 C.3     1  UNL1        0.0472
     22 C         136.3984  141.3778  156.1893 C.3     1  UNL1        0.0472
     23 C         142.6311  138.7290  165.8706 C.2     1  UNL1        0.2470
     24 N         142.5315  138.4875  164.3936 N.am    1  UNL1       -0.3252
     25 O         143.7132  138.0632  166.6681 O.2     1  UNL1       -0.2702
     26 H         141.8213  138.9245  163.8702 H       1  UNL1        0.1453
     27 H         143.1763  137.8921  163.9475 H       1  UNL1        0.1453
     28 C         141.0942  142.8947  169.0503 C.3     1  UNL1        0.0270
     29 C         140.2527  141.7373  169.5002 C.3     1  UNL1        0.1147
     30 C         139.4113  140.5800  169.9501 C.3     1  UNL1        0.0270
     31 C         139.9499  142.4557  170.7817 C.3     1  UNL1        0.1594
     32 O         140.6740  142.0809  172.0407 O.3     1  UNL1       -0.3800
     33 H         140.4286  141.1786  172.2985 H       1  UNL1        0.2105
@<TRIPOS>BOND
     1    28    29    1
     2    29    30    1
     3    29    31    1
     4    31    32    1
     5    29     1    1
     6     1     2   ar
     7     2     3   ar
     8     3     9    1
     9     9    10   ar
    10    10    11   ar
    11    11    12   ar
    12    12    13   ar
    13    13    14   ar
    14    14    19    1
    15    19    20    1
    16    20    21    1
    17    21    22    1
    18    14    15   ar
    19    15    16   ar
    20    16    17   ar
    21    17    18   ar
    22     3     4   ar
    23     4    23    1
    24    23    24   am
    25    23    25    2
    26     4     5   ar
    27     5     6    1
    28     5     1   ar
    29    18     9   ar
    30    17    12   ar
    31    22    20    1
    32    32    33    1
    33    24    26    1
    34    24    27    1
    35     6     7    1
    36     6     8    1
