@<TRIPOS>MOLECULE
*****
 26 28 0 0 0
SMALL
GASTEIGER

@<TRIPOS>ATOM
      1 C         138.1822  139.4786  163.1527 C.3     1  UNL1        0.0992
      2 C         139.7016  140.1760  165.1413 C.2     1  UNL1       -0.0032
      3 C         138.3452  140.1077  164.5045 C.2     1  UNL1       -0.0088
      4 C         140.1905  142.0633  169.1971 C.ar    1  UNL1        0.0756
      5 C         139.8495  140.6070  169.0837 C.ar    1  UNL1        0.0064
      6 C         139.6865  139.9780  167.7318 C.ar    1  UNL1        0.0002
      7 C         139.8646  140.8052  166.4933 C.ar    1  UNL1       -0.0003
      8 C         140.2057  142.2614  166.6066 C.ar    1  UNL1        0.0002
      9 C         140.3686  142.8905  167.9585 C.ar    1  UNL1        0.0064
     10 C         140.3535  142.6924  170.5490 C.2     1  UNL1        0.3413
     11 O         139.1902  143.3777  171.2025 O.2     1  UNL1       -0.2449
     12 C         142.9419  142.9064  170.4832 C.3     1  UNL1        0.2560
     13 O         141.6798  142.6362  171.2474 O.3     1  UNL1       -0.4413
     14 N         137.9717  140.3418  161.9442 N.3     1  UNL1       -0.2639
     15 C         137.9751  139.7291  160.5750 C.3     1  UNL1        0.0902
     16 C         137.7579  141.8177  162.1048 C.3     1  UNL1        0.0995
     17 C         138.8899  142.6956  162.5498 C.ar    1  UNL1       -0.0031
     18 C         138.6247  143.8569  163.4614 C.ar    1  UNL1       -0.0030
     19 C         139.7567  144.7347  163.9065 C.ar    1  UNL1       -0.0016
     20 C         141.1538  144.4513  163.4399 C.ar    1  UNL1        0.0119
     21 C         141.4190  143.2900  162.5283 C.ar    1  UNL1        0.1342
     22 C         140.2870  142.4121  162.0832 C.ar    1  UNL1        0.0337
     23 O         142.8161  143.0065  162.0617 O.3     1  UNL1       -0.4758
     24 C         143.9480  143.8843  162.5067 C.3     1  UNL1        0.2057
     25 C         143.6828  145.0456  163.4183 C.3     1  UNL1        0.0521
     26 C         142.2858  145.3291  163.8849 C.3     1  UNL1        0.0333
@<TRIPOS>BOND
     1    12    13    1
     2    13    10    1
     3    10    11    2
     4    10     4    1
     5     4     5   ar
     6     5     6   ar
     7     6     7   ar
     8     7     2    1
     9     2     3    2
    10     3     1    1
    11     1    14    1
    12    14    15    1
    13    14    16    1
    14    16    17    1
    15    17    18   ar
    16    18    19   ar
    17    19    20   ar
    18    20    21   ar
    19    21    22   ar
    20    21    23    1
    21    23    24    1
    22    24    25    1
    23    25    26    1
    24     7     8   ar
    25     8     9   ar
    26     9     4   ar
    27    22    17   ar
    28    26    20    1
@<TRIPOS>MOLECULE
*****
 26 28 0 0 0
SMALL
GASTEIGER

@<TRIPOS>ATOM
      1 C         144.9295  140.7490  163.7044 C.3     1  UNL1        0.0992
      2 C         143.8059  142.1842  165.5558 C.2     1  UNL1       -0.0032
      3 C         143.9716  140.8699  164.8523 C.2     1  UNL1       -0.0088
      4 C         140.9318  142.5465  168.9994 C.ar    1  UNL1        0.0756
      5 C         140.4132  142.4795  167.5935 C.ar    1  UNL1        0.0064
      6 C         141.3712  142.3587  166.4457 C.ar    1  UNL1        0.0002
      7 C         142.8479  142.3050  166.7037 C.ar    1  UNL1       -0.0003
      8 C         143.3665  142.3721  168.1096 C.ar    1  UNL1        0.0002
      9 C         142.4085  142.4928  169.2574 C.ar    1  UNL1        0.0064
     10 C         139.9738  142.6673  170.1473 C.2     1  UNL1        0.3413
     11 O         139.6903  144.0116  170.7493 O.2     1  UNL1       -0.2449
     12 C         139.9565  140.1021  170.5588 C.3     1  UNL1        0.2560
     13 O         139.2993  141.4437  170.6931 O.3     1  UNL1       -0.4413
     14 N         144.4578  141.0051  162.3037 N.3     1  UNL1       -0.2639
     15 C         144.3589  139.8713  161.3266 C.3     1  UNL1        0.0902
     16 C         144.0850  142.3948  161.8801 C.3     1  UNL1        0.0995
     17 C         142.8483  143.0406  162.4312 C.ar    1  UNL1       -0.0031
     18 C         142.8989  144.4547  162.9291 C.ar    1  UNL1       -0.0030
     19 C         141.6623  145.1004  163.4802 C.ar    1  UNL1       -0.0016
     20 C         140.3750  144.3321  163.5335 C.ar    1  UNL1        0.0119
     21 C         140.3245  142.9180  163.0356 C.ar    1  UNL1        0.1342
     22 C         141.5612  142.2723  162.4845 C.ar    1  UNL1        0.0337
     23 O         139.0373  142.1497  163.0889 O.3     1  UNL1       -0.4758
     24 C         137.8007  142.7955  163.6400 C.3     1  UNL1        0.2057
     25 C         137.8513  144.2095  164.1378 C.3     1  UNL1        0.0521
     26 C         139.1384  144.9779  164.0846 C.3     1  UNL1        0.0333
@<TRIPOS>BOND
     1    12    13    1
     2    13    10    1
     3    10    11    2
     4    10     4    1
     5     4     5   ar
     6     5     6   ar
     7     6     7   ar
     8     7     2    1
     9     2     3    2
    10     3     1    1
    11     1    14    1
    12    14    15    1
    13    14    16    1
    14    16    17    1
    15    17    18   ar
    16    18    19   ar
    17    19    20   ar
    18    20    21   ar
    19    21    22   ar
    20    21    23    1
    21    23    24    1
    22    24    25    1
    23    25    26    1
    24     7     8   ar
    25     8     9   ar
    26     9     4   ar
    27    22    17   ar
    28    26    20    1
@<TRIPOS>MOLECULE
*****
 26 28 0 0 0
SMALL
GASTEIGER

@<TRIPOS>ATOM
      1 C         138.8693  137.8796  163.9387 C.3     1  UNL1        0.0992
      2 C         139.1297  139.9710  165.4580 C.2     1  UNL1       -0.0032
      3 C         139.3491  138.5074  165.2137 C.2     1  UNL1       -0.0088
      4 C         140.5692  141.8540  169.2832 C.ar    1  UNL1        0.0756
      5 C         139.8333  140.5475  169.3210 C.ar    1  UNL1        0.0064
      6 C         139.3535  139.9199  168.0459 C.ar    1  UNL1        0.0002
      7 C         139.6096  140.5987  166.7331 C.ar    1  UNL1       -0.0003
      8 C         140.3455  141.9052  166.6953 C.ar    1  UNL1        0.0002
      9 C         140.8253  142.5328  167.9703 C.ar    1  UNL1        0.0064
     10 C         141.0491  142.4817  170.5583 C.2     1  UNL1        0.3413
     11 O         140.3285  142.2102  171.8455 O.2     1  UNL1       -0.2449
     12 C         143.6045  142.8190  170.2328 C.3     1  UNL1        0.2560
     13 O         142.2496  143.3810  170.5460 O.3     1  UNL1       -0.4413
     14 N         139.7292  137.9249  162.7104 N.3     1  UNL1       -0.2639
     15 C         139.0951  138.0106  161.3538 C.3     1  UNL1        0.0902
     16 C         141.2231  137.8845  162.8389 C.3     1  UNL1        0.0995
     17 C         141.9553  139.0444  163.4459 C.ar    1  UNL1       -0.0031
     18 C         142.8823  138.8229  164.6042 C.ar    1  UNL1       -0.0030
     19 C         143.6146  139.9827  165.2113 C.ar    1  UNL1       -0.0016
     20 C         143.4198  141.3642  164.6601 C.ar    1  UNL1        0.0119
     21 C         142.4928  141.5857  163.5018 C.ar    1  UNL1        0.1342
     22 C         141.7606  140.4258  162.8947 C.ar    1  UNL1        0.0337
     23 O         142.2981  142.9671  162.9506 O.3     1  UNL1       -0.4758
     24 C         143.0303  144.1269  163.5576 C.3     1  UNL1        0.2057
     25 C         143.9573  143.9054  164.7159 C.3     1  UNL1        0.0521
     26 C         144.1521  142.5240  165.2671 C.3     1  UNL1        0.0333
@<TRIPOS>BOND
     1    12    13    1
     2    13    10    1
     3    10    11    2
     4    10     4    1
     5     4     5   ar
     6     5     6   ar
     7     6     7   ar
     8     7     2    1
     9     2     3    2
    10     3     1    1
    11     1    14    1
    12    14    15    1
    13    14    16    1
    14    16    17    1
    15    17    18   ar
    16    18    19   ar
    17    19    20   ar
    18    20    21   ar
    19    21    22   ar
    20    21    23    1
    21    23    24    1
    22    24    25    1
    23    25    26    1
    24     7     8   ar
    25     8     9   ar
    26     9     4   ar
    27    22    17   ar
    28    26    20    1
@<TRIPOS>MOLECULE
*****
 26 28 0 0 0
SMALL
GASTEIGER

@<TRIPOS>ATOM
      1 C         144.6061  139.5564  163.7341 C.3     1  UNL1        0.0992
      2 C         142.6298  139.0799  165.3518 C.2     1  UNL1       -0.0032
      3 C         143.7785  139.9442  164.9235 C.2     1  UNL1       -0.0088
      4 C         140.1473  140.2433  168.9202 C.ar    1  UNL1        0.0756
      5 C         141.5820  139.8454  169.1023 C.ar    1  UNL1        0.0064
      6 C         142.4095  139.4576  167.9129 C.ar    1  UNL1        0.0002
      7 C         141.8022  139.4678  166.5413 C.ar    1  UNL1       -0.0003
      8 C         140.3675  139.8657  166.3592 C.ar    1  UNL1        0.0002
      9 C         139.5401  140.2535  167.5487 C.ar    1  UNL1        0.0064
     10 C         139.3197  140.6312  170.1097 C.2     1  UNL1        0.3413
     11 O         138.3460  139.6530  170.6970 O.2     1  UNL1       -0.2449
     12 C         140.1627  143.0833  169.9470 C.3     1  UNL1        0.2560
     13 O         139.4659  141.9972  170.7118 O.3     1  UNL1       -0.4413
     14 N         143.9945  139.5512  162.3644 N.3     1  UNL1       -0.2639
     15 C         144.0507  138.3110  161.5226 C.3     1  UNL1        0.0902
     16 C         143.3268  140.7863  161.8365 C.3     1  UNL1        0.0995
     17 C         142.0051  141.2219  162.3964 C.ar    1  UNL1       -0.0031
     18 C         140.8186  140.3077  162.3163 C.ar    1  UNL1       -0.0030
     19 C         139.4970  140.7433  162.8762 C.ar    1  UNL1       -0.0016
     20 C         139.3618  142.0932  163.5162 C.ar    1  UNL1        0.0119
     21 C         140.5483  143.0074  163.5964 C.ar    1  UNL1        0.1342
     22 C         141.8700  142.5718  163.0365 C.ar    1  UNL1        0.0337
     23 O         140.4132  144.3572  164.2364 O.3     1  UNL1       -0.4758
     24 C         139.0915  144.7928  164.7963 C.3     1  UNL1        0.2057
     25 C         137.9050  143.8786  164.7161 C.3     1  UNL1        0.0521
     26 C         138.0402  142.5288  164.0761 C.3     1  UNL1        0.0333
@<TRIPOS>BOND
     1    12    13    1
     2    13    10    1
     3    10    11    2
     4    10     4    1
     5     4     5   ar
     6     5     6   ar
     7     6     7   ar
     8     7     2    1
     9     2     3    2
    10     3     1    1
    11     1    14    1
    12    14    15    1
    13    14    16    1
    14    16    17    1
    15    17    18   ar
    16    18    19   ar
    17    19    20   ar
    18    20    21   ar
    19    21    22   ar
    20    21    23    1
    21    23    24    1
    22    24    25    1
    23    25    26    1
    24     7     8   ar
    25     8     9   ar
    26     9     4   ar
    27    22    17   ar
    28    26    20    1
@<TRIPOS>MOLECULE
*****
 26 28 0 0 0
SMALL
GASTEIGER

@<TRIPOS>ATOM
      1 C         141.0700  137.0448  163.5046 C.3     1  UNL1        0.0992
      2 C         141.8333  138.7838  165.2776 C.2     1  UNL1       -0.0032
      3 C         140.8561  137.7445  164.8141 C.2     1  UNL1       -0.0088
      4 C         141.1914  140.8827  169.2060 C.ar    1  UNL1        0.0756
      5 C         140.0666  140.7777  168.2192 C.ar    1  UNL1        0.0064
      6 C         140.2806  140.0781  166.9097 C.ar    1  UNL1        0.0002
      7 C         141.6194  139.4834  166.5871 C.ar    1  UNL1       -0.0003
      8 C         142.7442  139.5884  167.5739 C.ar    1  UNL1        0.0002
      9 C         142.5302  140.2881  168.8833 C.ar    1  UNL1        0.0064
     10 C         140.9775  141.5824  170.5155 C.2     1  UNL1        0.3413
     11 O         140.4448  140.8222  171.6937 O.2     1  UNL1       -0.2449
     12 C         140.4749  144.0584  169.9100 C.3     1  UNL1        0.2560
     13 O         141.2963  143.0422  170.6467 O.3     1  UNL1       -0.4413
     14 N         141.0739  137.8301  162.2266 N.3     1  UNL1       -0.2639
     15 C         142.2984  137.8469  161.3604 C.3     1  UNL1        0.0902
     16 C         139.8533  138.5984  161.8147 C.3     1  UNL1        0.0995
     17 C         139.4462  139.8245  162.5770 C.ar    1  UNL1       -0.0031
     18 C         138.1285  139.8595  163.2928 C.ar    1  UNL1       -0.0030
     19 C         137.7214  141.0856  164.0550 C.ar    1  UNL1       -0.0016
     20 C         138.6320  142.2767  164.1015 C.ar    1  UNL1        0.0119
     21 C         139.9497  142.2417  163.3857 C.ar    1  UNL1        0.1342
     22 C         140.3568  141.0156  162.6234 C.ar    1  UNL1        0.0337
     23 O         140.8603  143.4327  163.4321 O.3     1  UNL1       -0.4758
     24 C         140.4532  144.6587  164.1944 C.3     1  UNL1        0.2057
     25 C         139.1355  144.6937  164.9102 C.3     1  UNL1        0.0521
     26 C         138.2249  143.5027  164.8637 C.3     1  UNL1        0.0333
@<TRIPOS>BOND
     1    12    13    1
     2    13    10    1
     3    10    11    2
     4    10     4    1
     5     4     5   ar
     6     5     6   ar
     7     6     7   ar
     8     7     2    1
     9     2     3    2
    10     3     1    1
    11     1    14    1
    12    14    15    1
    13    14    16    1
    14    16    17    1
    15    17    18   ar
    16    18    19   ar
    17    19    20   ar
    18    20    21   ar
    19    21    22   ar
    20    21    23    1
    21    23    24    1
    22    24    25    1
    23    25    26    1
    24     7     8   ar
    25     8     9   ar
    26     9     4   ar
    27    22    17   ar
    28    26    20    1
@<TRIPOS>MOLECULE
*****
 26 28 0 0 0
SMALL
GASTEIGER

@<TRIPOS>ATOM
      1 C         138.7110  137.6305  163.2071 C.3     1  UNL1        0.0992
      2 C         139.6663  139.3134  164.9408 C.2     1  UNL1       -0.0032
      3 C         139.4139  137.9006  164.5044 C.2     1  UNL1       -0.0088
      4 C         141.7748  140.1235  168.8328 C.ar    1  UNL1        0.0756
      5 C         140.2758  140.1133  168.7799 C.ar    1  UNL1        0.0064
      6 C         139.5730  139.8432  167.4825 C.ar    1  UNL1        0.0002
      7 C         140.3692  139.5834  166.2381 C.ar    1  UNL1       -0.0003
      8 C         141.8682  139.5937  166.2910 C.ar    1  UNL1        0.0002
      9 C         142.5710  139.8637  167.5884 C.ar    1  UNL1        0.0064
     10 C         142.4777  140.3936  170.1302 C.2     1  UNL1        0.3413
     11 O         143.4425  139.3875  170.6840 O.2     1  UNL1       -0.2449
     12 C         142.2590  142.9823  170.1490 C.3     1  UNL1        0.2560
     13 O         142.2156  141.6697  170.8736 O.3     1  UNL1       -0.4413
     14 N         138.9203  138.5445  162.0363 N.3     1  UNL1       -0.2639
     15 C         137.8332  139.4901  161.6192 C.3     1  UNL1        0.0902
     16 C         140.2168  138.5128  161.2825 C.3     1  UNL1        0.0995
     17 C         141.4692  139.0346  161.9221 C.ar    1  UNL1       -0.0031
     18 C         142.5054  138.0778  162.4326 C.ar    1  UNL1       -0.0030
     19 C         143.7579  138.5995  163.0722 C.ar    1  UNL1       -0.0016
     20 C         143.9741  140.0783  163.2014 C.ar    1  UNL1        0.0119
     21 C         142.9379  141.0352  162.6909 C.ar    1  UNL1        0.1342
     22 C         141.6854  140.5133  162.0513 C.ar    1  UNL1        0.0337
     23 O         143.1540  142.5139  162.8201 O.3     1  UNL1       -0.4758
     24 C         144.4064  143.0357  163.4597 C.3     1  UNL1        0.2057
     25 C         145.4427  142.0788  163.9702 C.3     1  UNL1        0.0521
     26 C         145.2265  140.6001  163.8410 C.3     1  UNL1        0.0333
@<TRIPOS>BOND
     1    12    13    1
     2    13    10    1
     3    10    11    2
     4    10     4    1
     5     4     5   ar
     6     5     6   ar
     7     6     7   ar
     8     7     2    1
     9     2     3    2
    10     3     1    1
    11     1    14    1
    12    14    15    1
    13    14    16    1
    14    16    17    1
    15    17    18   ar
    16    18    19   ar
    17    19    20   ar
    18    20    21   ar
    19    21    22   ar
    20    21    23    1
    21    23    24    1
    22    24    25    1
    23    25    26    1
    24     7     8   ar
    25     8     9   ar
    26     9     4   ar
    27    22    17   ar
    28    26    20    1
@<TRIPOS>MOLECULE
*****
 26 28 0 0 0
SMALL
GASTEIGER

@<TRIPOS>ATOM
      1 C         140.5706  137.7515  163.9351 C.3     1  UNL1        0.0992
      2 C         139.6963  139.6538  165.4735 C.2     1  UNL1       -0.0032
      3 C         140.7343  138.6217  165.1458 C.2     1  UNL1       -0.0088
      4 C         140.1874  142.2645  169.1057 C.ar    1  UNL1        0.0756
      5 C         140.4646  142.8196  167.7401 C.ar    1  UNL1        0.0064
      6 C         140.3009  141.9494  166.5294 C.ar    1  UNL1        0.0002
      7 C         139.8600  140.5241  166.6843 C.ar    1  UNL1       -0.0003
      8 C         139.5828  139.9689  168.0499 C.ar    1  UNL1        0.0002
      9 C         139.7465  140.8391  169.2606 C.ar    1  UNL1        0.0064
     10 C         140.3512  143.1347  170.3165 C.2     1  UNL1        0.3413
     11 O         139.1755  143.4109  171.2061 O.2     1  UNL1       -0.2449
     12 C         142.9436  142.9640  170.3291 C.3     1  UNL1        0.2560
     13 O         141.6906  143.7287  170.6377 O.3     1  UNL1       -0.4413
     14 N         139.8535  138.2755  162.7263 N.3     1  UNL1       -0.2639
     15 C         138.4520  137.8284  162.4332 C.3     1  UNL1        0.0902
     16 C         140.5379  139.2465  161.8105 C.3     1  UNL1        0.0995
     17 C         140.7638  140.6622  162.2520 C.ar    1  UNL1       -0.0031
     18 C         139.6155  141.6263  162.2964 C.ar    1  UNL1       -0.0030
     19 C         139.8414  143.0419  162.7379 C.ar    1  UNL1       -0.0016
     20 C         141.2157  143.4935  163.1350 C.ar    1  UNL1        0.0119
     21 C         142.3640  142.5294  163.0905 C.ar    1  UNL1        0.1342
     22 C         142.1380  141.1137  162.6490 C.ar    1  UNL1        0.0337
     23 O         143.7382  142.9810  163.4876 O.3     1  UNL1       -0.4758
     24 C         143.9641  144.3966  163.9290 C.3     1  UNL1        0.2057
     25 C         142.8158  145.3607  163.9735 C.3     1  UNL1        0.0521
     26 C         141.4416  144.9091  163.5764 C.3     1  UNL1        0.0333
@<TRIPOS>BOND
     1    12    13    1
     2    13    10    1
     3    10    11    2
     4    10     4    1
     5     4     5   ar
     6     5     6   ar
     7     6     7   ar
     8     7     2    1
     9     2     3    2
    10     3     1    1
    11     1    14    1
    12    14    15    1
    13    14    16    1
    14    16    17    1
    15    17    18   ar
    16    18    19   ar
    17    19    20   ar
    18    20    21   ar
    19    21    22   ar
    20    21    23    1
    21    23    24    1
    22    24    25    1
    23    25    26    1
    24     7     8   ar
    25     8     9   ar
    26     9     4   ar
    27    22    17   ar
    28    26    20    1
@<TRIPOS>MOLECULE
*****
 26 28 0 0 0
SMALL
GASTEIGER

@<TRIPOS>ATOM
      1 C         141.6665  144.6854  162.5187 C.3     1  UNL1        0.0992
      2 C         141.9295  143.0264  164.5008 C.2     1  UNL1       -0.0032
      3 C         141.7148  144.4220  163.9946 C.2     1  UNL1       -0.0088
      4 C         142.0744  142.2364  168.9285 C.ar    1  UNL1        0.0756
      5 C         140.7604  142.5069  168.2575 C.ar    1  UNL1        0.0064
      6 C         140.7121  142.7702  166.7816 C.ar    1  UNL1        0.0002
      7 C         141.9778  142.7631  165.9767 C.ar    1  UNL1       -0.0003
      8 C         143.2918  142.4926  166.6477 C.ar    1  UNL1        0.0002
      9 C         143.3401  142.2293  168.1236 C.ar    1  UNL1        0.0064
     10 C         142.1227  141.9731  170.4045 C.2     1  UNL1        0.3413
     11 O         142.4484  143.0870  171.3548 O.2     1  UNL1       -0.2449
     12 C         140.5829  139.8849  170.5412 C.3     1  UNL1        0.2560
     13 O         141.8452  140.5959  170.9300 O.3     1  UNL1       -0.4413
     14 N         140.3442  144.7870  161.8179 N.3     1  UNL1       -0.2639
     15 C         139.7576  146.1339  161.5147 C.3     1  UNL1        0.0902
     16 C         139.6084  143.5419  161.4202 C.3     1  UNL1        0.0995
     17 C         139.2263  142.5317  162.4612 C.ar    1  UNL1       -0.0031
     18 C         138.3150  142.9226  163.5867 C.ar    1  UNL1       -0.0030
     19 C         137.9328  141.9125  164.6276 C.ar    1  UNL1       -0.0016
     20 C         138.4619  140.5114  164.5431 C.ar    1  UNL1        0.0119
     21 C         139.3732  140.1205  163.4176 C.ar    1  UNL1        0.1342
     22 C         139.7554  141.1307  162.3766 C.ar    1  UNL1        0.0337
     23 O         139.9024  138.7195  163.3331 O.3     1  UNL1       -0.4758
     24 C         139.5202  137.7094  164.3740 C.3     1  UNL1        0.2057
     25 C         138.6089  138.1003  165.4995 C.3     1  UNL1        0.0521
     26 C         138.0798  139.5013  165.5840 C.3     1  UNL1        0.0333
@<TRIPOS>BOND
     1    12    13    1
     2    13    10    1
     3    10    11    2
     4    10     4    1
     5     4     5   ar
     6     5     6   ar
     7     6     7   ar
     8     7     2    1
     9     2     3    2
    10     3     1    1
    11     1    14    1
    12    14    15    1
    13    14    16    1
    14    16    17    1
    15    17    18   ar
    16    18    19   ar
    17    19    20   ar
    18    20    21   ar
    19    21    22   ar
    20    21    23    1
    21    23    24    1
    22    24    25    1
    23    25    26    1
    24     7     8   ar
    25     8     9   ar
    26     9     4   ar
    27    22    17   ar
    28    26    20    1
@<TRIPOS>MOLECULE
*****
 26 28 0 0 0
SMALL
GASTEIGER

@<TRIPOS>ATOM
      1 C         141.9256  137.7861  162.4328 C.3     1  UNL1        0.0992
      2 C         140.2360  138.6504  164.2072 C.2     1  UNL1       -0.0032
      3 C         141.6203  138.2038  163.8408 C.2     1  UNL1       -0.0088
      4 C         139.3204  139.9035  168.4311 C.ar    1  UNL1        0.0756
      5 C         138.2591  139.2512  167.5955 C.ar    1  UNL1        0.0064
      6 C         138.5643  138.8336  166.1876 C.ar    1  UNL1        0.0002
      7 C         139.9308  139.0681  165.6152 C.ar    1  UNL1       -0.0003
      8 C         140.9921  139.7204  166.4508 C.ar    1  UNL1        0.0002
      9 C         140.6869  140.1380  167.8587 C.ar    1  UNL1        0.0064
     10 C         139.0152  140.3212  169.8391 C.2     1  UNL1        0.3413
     11 O         137.7734  139.8227  170.5169 O.2     1  UNL1       -0.2449
     12 C         139.8096  142.7238  170.4273 C.3     1  UNL1        0.2560
     13 O         139.9518  141.2374  170.5693 O.3     1  UNL1       -0.4413
     14 N         142.6270  138.7332  161.5049 N.3     1  UNL1       -0.2639
     15 C         144.0366  138.4549  161.0740 C.3     1  UNL1        0.0902
     16 C         141.9189  139.9585  161.0078 C.3     1  UNL1        0.0995
     17 C         141.4464  140.9982  161.9805 C.ar    1  UNL1       -0.0031
     18 C         142.3777  141.5157  163.0364 C.ar    1  UNL1       -0.0030
     19 C         141.9053  142.5553  164.0090 C.ar    1  UNL1       -0.0016
     20 C         140.5015  143.0774  163.9258 C.ar    1  UNL1        0.0119
     21 C         139.5702  142.5598  162.8699 C.ar    1  UNL1        0.1342
     22 C         140.0427  141.5202  161.8973 C.ar    1  UNL1        0.0337
     23 O         138.1665  143.0819  162.7867 O.3     1  UNL1       -0.4758
     24 C         137.6941  144.1215  163.7593 C.3     1  UNL1        0.2057
     25 C         138.6254  144.6390  164.8152 C.3     1  UNL1        0.0521
     26 C         140.0291  144.1169  164.8984 C.3     1  UNL1        0.0333
@<TRIPOS>BOND
     1    12    13    1
     2    13    10    1
     3    10    11    2
     4    10     4    1
     5     4     5   ar
     6     5     6   ar
     7     6     7   ar
     8     7     2    1
     9     2     3    2
    10     3     1    1
    11     1    14    1
    12    14    15    1
    13    14    16    1
    14    16    17    1
    15    17    18   ar
    16    18    19   ar
    17    19    20   ar
    18    20    21   ar
    19    21    22   ar
    20    21    23    1
    21    23    24    1
    22    24    25    1
    23    25    26    1
    24     7     8   ar
    25     8     9   ar
    26     9     4   ar
    27    22    17   ar
    28    26    20    1
