@<TRIPOS>MOLECULE
*****
 24 27 0 0 0
SMALL
GASTEIGER

@<TRIPOS>ATOM
      1 C         142.8900  138.8412  167.3888 C.ar    1  UNL1        0.1249
      2 N         143.0427  138.9984  168.8727 N.ar    1  UNL1       -0.2426
      3 C         141.9687  139.6779  169.6694 C.ar    1  UNL1        0.0987
      4 C         140.7419  140.2001  168.9823 C.ar    1  UNL1        0.0208
      5 C         140.5892  140.0429  167.4984 C.ar    1  UNL1        0.0062
      6 C         139.3623  140.5652  166.8112 C.ar    1  UNL1        0.0402
      7 C         139.2096  140.4080  165.3274 C.ar    1  UNL1        0.1357
      8 C         140.2836  139.7286  164.5306 C.ar    1  UNL1        0.0402
      9 C         141.5104  139.2063  165.2177 C.ar    1  UNL1        0.0049
     10 C         141.6632  139.3635  166.7017 C.ar    1  UNL1        0.0192
     11 F         144.4629  138.7842  165.3218 F       1  UNL1       -0.1915
     12 C         143.9640  138.1618  166.5921 C.3     1  UNL1        0.3581
     13 F         144.5393  136.8600  167.0657 F       1  UNL1       -0.1915
     14 N         137.9828  140.9303  164.6402 N.pl3   1  UNL1       -0.1958
     15 H         137.0904  140.6402  164.9382 H       1  UNL1        0.2986
     16 C         138.1155  141.8946  163.4989 C.2     1  UNL1        0.3707
     17 N         137.3189  141.8717  162.2281 N.2     1  UNL1        0.0819
     18 N         137.7792  143.0140  161.3718 N.2     1  UNL1       -0.0365
     19 C         138.8604  143.7429  162.1134 C.2     1  UNL1        0.1346
     20 C         139.6824  144.9472  161.7615 C.3     1  UNL1        0.0792
     21 C         140.7123  145.4597  162.7241 C.2     1  UNL1        0.0010
     22 C         140.9201  144.7679  164.0388 C.2     1  UNL1        0.0950
     23 N         140.0980  143.5635  164.3907 N.2     1  UNL1       -0.2354
     24 C         139.0682  143.0510  163.4280 C.2     1  UNL1        0.1834
@<TRIPOS>BOND
     1    11    12    1
     2    12    13    1
     3    12     1    1
     4     1     2   ar
     5     2     3   ar
     6     3     4   ar
     7     4     5   ar
     8     5     6   ar
     9     6     7   ar
    10     7    14    1
    11    14    16    1
    12    16    17    2
    13    17    18    1
    14    18    19    2
    15    19    20    1
    16    20    21    1
    17    21    22    2
    18    22    23    1
    19    23    24    2
    20     7     8   ar
    21     8     9   ar
    22     9    10   ar
    23    10     1   ar
    24    10     5   ar
    25    24    16    1
    26    24    19    1
    27    14    15    1
@<TRIPOS>MOLECULE
*****
 24 27 0 0 0
SMALL
GASTEIGER

@<TRIPOS>ATOM
      1 C         140.5428  142.4455  169.5695 C.ar    1  UNL1        0.1249
      2 N         139.4957  141.7315  170.3718 N.ar    1  UNL1       -0.2426
      3 C         138.9053  140.4499  169.8631 C.ar    1  UNL1        0.0987
      4 C         139.3620  139.8823  168.5519 C.ar    1  UNL1        0.0208
      5 C         140.4090  140.5963  167.7495 C.ar    1  UNL1        0.0062
      6 C         140.8657  140.0286  166.4382 C.ar    1  UNL1        0.0402
      7 C         141.9127  140.7426  165.6359 C.ar    1  UNL1        0.1357
      8 C         142.5032  142.0242  166.1447 C.ar    1  UNL1        0.0402
      9 C         142.0465  142.5919  167.4558 C.ar    1  UNL1        0.0049
     10 C         140.9994  141.8779  168.2583 C.ar    1  UNL1        0.0192
     11 F         142.5658  143.7694  170.5205 F       1  UNL1       -0.1915
     12 C         141.1332  143.7271  170.0783 C.3     1  UNL1        0.3581
     13 F         140.2909  144.9665  170.1448 F       1  UNL1       -0.1915
     14 N         142.3694  140.1750  164.3246 N.pl3   1  UNL1       -0.1958
     15 H         143.2252  140.4653  163.9339 H       1  UNL1        0.2986
     16 C         141.5223  139.1651  163.6088 C.2     1  UNL1        0.3707
     17 N         141.8274  137.7038  163.4619 N.2     1  UNL1        0.0819
     18 N         140.7150  137.0747  162.6764 N.2     1  UNL1       -0.0365
     19 C         139.7225  138.1473  162.3379 C.2     1  UNL1        0.1346
     20 C         138.4288  138.1145  161.5794 C.3     1  UNL1        0.0792
     21 C         137.6341  139.3734  161.3970 C.2     1  UNL1        0.0010
     22 C         138.1330  140.6654  161.9733 C.2     1  UNL1        0.0950
     23 N         139.4268  140.6983  162.7318 N.2     1  UNL1       -0.2354
     24 C         140.2215  139.4392  162.9141 C.2     1  UNL1        0.1834
@<TRIPOS>BOND
     1    11    12    1
     2    12    13    1
     3    12     1    1
     4     1     2   ar
     5     2     3   ar
     6     3     4   ar
     7     4     5   ar
     8     5     6   ar
     9     6     7   ar
    10     7    14    1
    11    14    16    1
    12    16    17    2
    13    17    18    1
    14    18    19    2
    15    19    20    1
    16    20    21    1
    17    21    22    2
    18    22    23    1
    19    23    24    2
    20     7     8   ar
    21     8     9   ar
    22     9    10   ar
    23    10     1   ar
    24    10     5   ar
    25    24    16    1
    26    24    19    1
    27    14    15    1
@<TRIPOS>MOLECULE
*****
 24 27 0 0 0
SMALL
GASTEIGER

@<TRIPOS>ATOM
      1 C         139.1646  139.7846  166.8822 C.ar    1  UNL1        0.1249
      2 N         140.0131  139.5150  168.0894 N.ar    1  UNL1       -0.2426
      3 C         140.9480  140.5711  168.6000 C.ar    1  UNL1        0.0987
      4 C         141.0343  141.8967  167.9035 C.ar    1  UNL1        0.0208
      5 C         140.1858  142.1663  166.6963 C.ar    1  UNL1        0.0062
      6 C         140.2721  143.4920  165.9998 C.ar    1  UNL1        0.0402
      7 C         139.4236  143.7616  164.7926 C.ar    1  UNL1        0.1357
      8 C         138.4887  142.7055  164.2819 C.ar    1  UNL1        0.0402
      9 C         138.4024  141.3799  164.9785 C.ar    1  UNL1        0.0049
     10 C         139.2509  141.1102  166.1857 C.ar    1  UNL1        0.0192
     11 F         137.0385  138.3230  167.1880 F       1  UNL1       -0.1915
     12 C         138.2297  138.7285  166.3716 C.3     1  UNL1        0.3581
     13 F         138.4860  138.0781  165.0445 F       1  UNL1       -0.1915
     14 N         139.5099  145.0873  164.0960 N.pl3   1  UNL1       -0.1958
     15 H         139.3430  145.9183  164.5968 H       1  UNL1        0.2986
     16 C         139.8505  145.1468  162.6364 C.2     1  UNL1        0.3707
     17 N         139.1410  145.9644  161.5981 N.2     1  UNL1        0.0819
     18 N         139.8124  145.7220  160.2788 N.2     1  UNL1       -0.0365
     19 C         140.9370  144.7547  160.5018 C.2     1  UNL1        0.1346
     20 C         141.9426  144.1516  159.5664 C.3     1  UNL1        0.0792
     21 C         142.9717  143.1931  160.0879 C.2     1  UNL1        0.0010
     22 C         142.9953  142.8375  161.5450 C.2     1  UNL1        0.0950
     23 N         141.9896  143.4406  162.4805 N.2     1  UNL1       -0.2354
     24 C         140.9605  144.3992  161.9589 C.2     1  UNL1        0.1834
@<TRIPOS>BOND
     1    11    12    1
     2    12    13    1
     3    12     1    1
     4     1     2   ar
     5     2     3   ar
     6     3     4   ar
     7     4     5   ar
     8     5     6   ar
     9     6     7   ar
    10     7    14    1
    11    14    16    1
    12    16    17    2
    13    17    18    1
    14    18    19    2
    15    19    20    1
    16    20    21    1
    17    21    22    2
    18    22    23    1
    19    23    24    2
    20     7     8   ar
    21     8     9   ar
    22     9    10   ar
    23    10     1   ar
    24    10     5   ar
    25    24    16    1
    26    24    19    1
    27    14    15    1
@<TRIPOS>MOLECULE
*****
 24 27 0 0 0
SMALL
GASTEIGER

@<TRIPOS>ATOM
      1 C         138.0052  141.4744  161.6337 C.ar    1  UNL1        0.1249
      2 N         137.7821  142.9537  161.5256 N.ar    1  UNL1       -0.2426
      3 C         137.7965  143.8065  162.7595 C.ar    1  UNL1        0.0987
      4 C         138.0340  143.1800  164.1015 C.ar    1  UNL1        0.0208
      5 C         138.2571  141.7006  164.2096 C.ar    1  UNL1        0.0062
      6 C         138.4946  141.0740  165.5516 C.ar    1  UNL1        0.0402
      7 C         138.7178  139.5947  165.6597 C.ar    1  UNL1        0.1357
      8 C         138.7034  138.7419  164.4258 C.ar    1  UNL1        0.0402
      9 C         138.4659  139.3684  163.0838 C.ar    1  UNL1        0.0049
     10 C         138.2427  140.8478  162.9756 C.ar    1  UNL1        0.0192
     11 F         136.8752  139.6441  160.1766 F       1  UNL1       -0.1915
     12 C         137.9908  140.6216  160.3997 C.3     1  UNL1        0.3581
     13 F         139.0920  140.7463  159.3890 F       1  UNL1       -0.1915
     14 N         138.9553  138.9681  167.0017 N.pl3   1  UNL1       -0.1958
     15 H         138.8618  137.9945  167.1139 H       1  UNL1        0.2986
     16 C         139.3353  139.8248  168.1728 C.2     1  UNL1        0.3707
     17 N         138.5484  139.9859  169.4397 N.2     1  UNL1        0.0819
     18 N         139.2957  140.9316  170.3325 N.2     1  UNL1       -0.0365
     19 C         140.5445  141.3551  169.6174 C.2     1  UNL1        0.1346
     20 C         141.6625  142.2751  170.0092 C.3     1  UNL1        0.0792
     21 C         142.8049  142.5113  169.0663 C.2     1  UNL1        0.0010
     22 C         142.8294  141.8273  167.7315 C.2     1  UNL1        0.0950
     23 N         141.7113  140.9071  167.3397 N.2     1  UNL1       -0.2354
     24 C         140.5689  140.6711  168.2826 C.2     1  UNL1        0.1834
@<TRIPOS>BOND
     1    11    12    1
     2    12    13    1
     3    12     1    1
     4     1     2   ar
     5     2     3   ar
     6     3     4   ar
     7     4     5   ar
     8     5     6   ar
     9     6     7   ar
    10     7    14    1
    11    14    16    1
    12    16    17    2
    13    17    18    1
    14    18    19    2
    15    19    20    1
    16    20    21    1
    17    21    22    2
    18    22    23    1
    19    23    24    2
    20     7     8   ar
    21     8     9   ar
    22     9    10   ar
    23    10     1   ar
    24    10     5   ar
    25    24    16    1
    26    24    19    1
    27    14    15    1
@<TRIPOS>MOLECULE
*****
 24 27 0 0 0
SMALL
GASTEIGER

@<TRIPOS>ATOM
      1 C         138.5415  139.3345  167.3965 C.ar    1  UNL1        0.1249
      2 N         138.8435  139.5476  168.8502 N.ar    1  UNL1       -0.2426
      3 C         139.6563  140.7323  169.2815 C.ar    1  UNL1        0.0987
      4 C         140.1671  141.7037  168.2591 C.ar    1  UNL1        0.0208
      5 C         139.8650  141.4905  166.8054 C.ar    1  UNL1        0.0062
      6 C         140.3758  142.4620  165.7829 C.ar    1  UNL1        0.0402
      7 C         140.0738  142.2488  164.3292 C.ar    1  UNL1        0.1357
      8 C         139.2610  141.0642  163.8979 C.ar    1  UNL1        0.0402
      9 C         138.7502  140.0928  164.9203 C.ar    1  UNL1        0.0049
     10 C         139.0522  140.3059  166.3741 C.ar    1  UNL1        0.0192
     11 F         136.4429  137.8269  167.6669 F       1  UNL1       -0.1915
     12 C         137.7287  138.1498  166.9652 C.3     1  UNL1        0.3581
     13 F         138.2017  137.2881  165.8322 F       1  UNL1       -0.1915
     14 N         140.5845  143.2203  163.3067 N.pl3   1  UNL1       -0.1958
     15 H         139.9515  143.7694  162.7900 H       1  UNL1        0.2986
     16 C         142.0598  143.3552  163.0715 C.2     1  UNL1        0.3707
     17 N         142.7500  144.5354  162.4544 N.2     1  UNL1        0.0819
     18 N         144.2207  144.2432  162.4136 N.2     1  UNL1       -0.0365
     19 C         144.4394  142.8823  163.0054 C.2     1  UNL1        0.1346
     20 C         145.6821  142.0719  163.2267 C.3     1  UNL1        0.0792
     21 C         145.5894  140.7128  163.8545 C.2     1  UNL1        0.0010
     22 C         144.2539  140.1640  164.2611 C.2     1  UNL1        0.0950
     23 N         143.0111  140.9744  164.0398 N.2     1  UNL1       -0.2354
     24 C         143.1039  142.3335  163.4120 C.2     1  UNL1        0.1834
@<TRIPOS>BOND
     1    11    12    1
     2    12    13    1
     3    12     1    1
     4     1     2   ar
     5     2     3   ar
     6     3     4   ar
     7     4     5   ar
     8     5     6   ar
     9     6     7   ar
    10     7    14    1
    11    14    16    1
    12    16    17    2
    13    17    18    1
    14    18    19    2
    15    19    20    1
    16    20    21    1
    17    21    22    2
    18    22    23    1
    19    23    24    2
    20     7     8   ar
    21     8     9   ar
    22     9    10   ar
    23    10     1   ar
    24    10     5   ar
    25    24    16    1
    26    24    19    1
    27    14    15    1
@<TRIPOS>MOLECULE
*****
 24 27 0 0 0
SMALL
GASTEIGER

@<TRIPOS>ATOM
      1 C         140.2837  140.6410  168.9457 C.ar    1  UNL1        0.1249
      2 N         141.6966  141.0908  169.1724 N.ar    1  UNL1       -0.2426
      3 C         142.7571  140.7702  168.1612 C.ar    1  UNL1        0.0987
      4 C         142.4048  139.9998  166.9234 C.ar    1  UNL1        0.0208
      5 C         140.9920  139.5500  166.6967 C.ar    1  UNL1        0.0062
      6 C         140.6396  138.7795  165.4588 C.ar    1  UNL1        0.0402
      7 C         139.2267  138.3296  165.2322 C.ar    1  UNL1        0.1357
      8 C         138.1662  138.6502  166.2433 C.ar    1  UNL1        0.0402
      9 C         138.5185  139.4206  167.4812 C.ar    1  UNL1        0.0049
     10 C         139.9314  139.8705  167.7079 C.ar    1  UNL1        0.0192
     11 F         139.0966  142.3561  170.4946 F       1  UNL1       -0.1915
     12 C         139.2232  140.9615  169.9569 C.3     1  UNL1        0.3581
     13 F         138.2892  139.8876  170.4304 F       1  UNL1       -0.1915
     14 N         138.8744  137.5592  163.9943 N.pl3   1  UNL1       -0.1958
     15 H         138.1357  136.9086  164.0130 H       1  UNL1        0.2986
     16 C         139.6474  137.7800  162.7279 C.2     1  UNL1        0.3707
     17 N         141.0237  137.2614  162.4333 N.2     1  UNL1        0.0819
     18 N         141.4068  137.7191  161.0571 N.2     1  UNL1       -0.0365
     19 C         140.2671  138.5206  160.5013 C.2     1  UNL1        0.1346
     20 C         140.0790  139.2210  159.1883 C.3     1  UNL1        0.0792
     21 C         138.8037  139.9591  158.9078 C.2     1  UNL1        0.0010
     22 C         137.7163  139.9968  159.9404 C.2     1  UNL1        0.0950
     23 N         137.9044  139.2963  161.2535 N.2     1  UNL1       -0.2354
     24 C         139.1798  138.5582  161.5339 C.2     1  UNL1        0.1834
@<TRIPOS>BOND
     1    11    12    1
     2    12    13    1
     3    12     1    1
     4     1     2   ar
     5     2     3   ar
     6     3     4   ar
     7     4     5   ar
     8     5     6   ar
     9     6     7   ar
    10     7    14    1
    11    14    16    1
    12    16    17    2
    13    17    18    1
    14    18    19    2
    15    19    20    1
    16    20    21    1
    17    21    22    2
    18    22    23    1
    19    23    24    2
    20     7     8   ar
    21     8     9   ar
    22     9    10   ar
    23    10     1   ar
    24    10     5   ar
    25    24    16    1
    26    24    19    1
    27    14    15    1
@<TRIPOS>MOLECULE
*****
 24 27 0 0 0
SMALL
GASTEIGER

@<TRIPOS>ATOM
      1 C         140.4310  140.7860  168.7763 C.ar    1  UNL1        0.1249
      2 N         141.8165  141.3568  168.8445 N.ar    1  UNL1       -0.2426
      3 C         142.7868  141.1058  167.7285 C.ar    1  UNL1        0.0987
      4 C         142.3716  140.2841  166.5443 C.ar    1  UNL1        0.0208
      5 C         140.9862  139.7133  166.4761 C.ar    1  UNL1        0.0062
      6 C         140.5710  138.8916  165.2919 C.ar    1  UNL1        0.0402
      7 C         139.1855  138.3208  165.2237 C.ar    1  UNL1        0.1357
      8 C         138.2152  138.5718  166.3397 C.ar    1  UNL1        0.0402
      9 C         138.6303  139.3935  167.5239 C.ar    1  UNL1        0.0049
     10 C         140.0159  139.9643  167.5921 C.ar    1  UNL1        0.0192
     11 F         138.7726  139.8842  170.5614 F       1  UNL1       -0.1915
     12 C         139.4607  141.0370  169.8924 C.3     1  UNL1        0.3581
     13 F         139.1785  142.4407  170.3394 F       1  UNL1       -0.1915
     14 N         138.7703  137.4990  164.0395 N.pl3   1  UNL1       -0.1958
     15 H         138.4476  136.5779  164.1683 H       1  UNL1        0.2986
     16 C         138.8467  138.0807  162.6590 C.2     1  UNL1        0.3707
     17 N         137.7296  138.7634  161.9268 N.2     1  UNL1        0.0819
     18 N         138.2462  139.1865  160.5836 N.2     1  UNL1       -0.0365
     19 C         139.6826  138.7653  160.4857 C.2     1  UNL1        0.1346
     20 C         140.7005  138.9158  159.3943 C.3     1  UNL1        0.0792
     21 C         142.0895  138.3829  159.5855 C.2     1  UNL1        0.0010
     22 C         142.4607  137.6995  160.8682 C.2     1  UNL1        0.0950
     23 N         141.4427  137.5490  161.9596 N.2     1  UNL1       -0.2354
     24 C         140.0537  138.0819  161.7684 C.2     1  UNL1        0.1834
@<TRIPOS>BOND
     1    11    12    1
     2    12    13    1
     3    12     1    1
     4     1     2   ar
     5     2     3   ar
     6     3     4   ar
     7     4     5   ar
     8     5     6   ar
     9     6     7   ar
    10     7    14    1
    11    14    16    1
    12    16    17    2
    13    17    18    1
    14    18    19    2
    15    19    20    1
    16    20    21    1
    17    21    22    2
    18    22    23    1
    19    23    24    2
    20     7     8   ar
    21     8     9   ar
    22     9    10   ar
    23    10     1   ar
    24    10     5   ar
    25    24    16    1
    26    24    19    1
    27    14    15    1
@<TRIPOS>MOLECULE
*****
 24 27 0 0 0
SMALL
GASTEIGER

@<TRIPOS>ATOM
      1 C         140.9963  142.1348  170.0878 C.ar    1  UNL1        0.1249
      2 N         141.5718  141.3563  171.2335 N.ar    1  UNL1       -0.2426
      3 C         142.4602  140.1772  170.9681 C.ar    1  UNL1        0.0987
      4 C         142.7731  139.7766  169.5569 C.ar    1  UNL1        0.0208
      5 C         142.1976  140.5550  168.4112 C.ar    1  UNL1        0.0062
      6 C         142.5105  140.1543  166.9999 C.ar    1  UNL1        0.0402
      7 C         141.9349  140.9327  165.8541 C.ar    1  UNL1        0.1357
      8 C         141.0465  142.1118  166.1196 C.ar    1  UNL1        0.0402
      9 C         140.7336  142.5125  167.5308 C.ar    1  UNL1        0.0049
     10 C         141.3092  141.7341  168.6766 C.ar    1  UNL1        0.0192
     11 F         138.8217  143.1301  171.1028 F       1  UNL1       -0.1915
     12 C         140.1079  143.3138  170.3532 C.3     1  UNL1        0.3581
     13 F         140.5056  144.6767  169.8690 F       1  UNL1       -0.1915
     14 N         142.2478  140.5320  164.4428 N.pl3   1  UNL1       -0.1958
     15 H         142.9408  141.0142  163.9364 H       1  UNL1        0.2986
     16 C         141.5048  139.3968  163.8033 C.2     1  UNL1        0.3707
     17 N         141.9424  137.9623  163.7733 N.2     1  UNL1        0.0819
     18 N         140.9018  137.1756  163.0328 N.2     1  UNL1       -0.0365
     19 C         139.8211  138.1239  162.6052 C.2     1  UNL1        0.1346
     20 C         138.5458  137.9148  161.8438 C.3     1  UNL1        0.0792
     21 C         137.6431  139.0783  161.5584 C.2     1  UNL1        0.0010
     22 C         138.0158  140.4511  162.0346 C.2     1  UNL1        0.0950
     23 N         139.2912  140.6602  162.7961 N.2     1  UNL1       -0.2354
     24 C         140.1938  139.4966  163.0814 C.2     1  UNL1        0.1834
@<TRIPOS>BOND
     1    11    12    1
     2    12    13    1
     3    12     1    1
     4     1     2   ar
     5     2     3   ar
     6     3     4   ar
     7     4     5   ar
     8     5     6   ar
     9     6     7   ar
    10     7    14    1
    11    14    16    1
    12    16    17    2
    13    17    18    1
    14    18    19    2
    15    19    20    1
    16    20    21    1
    17    21    22    2
    18    22    23    1
    19    23    24    2
    20     7     8   ar
    21     8     9   ar
    22     9    10   ar
    23    10     1   ar
    24    10     5   ar
    25    24    16    1
    26    24    19    1
    27    14    15    1
@<TRIPOS>MOLECULE
*****
 24 27 0 0 0
SMALL
GASTEIGER

@<TRIPOS>ATOM
      1 C         139.3432  139.9195  168.4012 C.ar    1  UNL1        0.1249
      2 N         138.1149  139.1051  168.1221 N.ar    1  UNL1       -0.2426
      3 C         137.8607  138.5808  166.7398 C.ar    1  UNL1        0.0987
      4 C         138.8348  138.8710  165.6367 C.ar    1  UNL1        0.0208
      5 C         140.0631  139.6854  165.9158 C.ar    1  UNL1        0.0062
      6 C         141.0372  139.9756  164.8127 C.ar    1  UNL1        0.0402
      7 C         142.2655  140.7900  165.0918 C.ar    1  UNL1        0.1357
      8 C         142.5197  141.3143  166.4741 C.ar    1  UNL1        0.0402
      9 C         141.5456  141.0241  167.5772 C.ar    1  UNL1        0.0049
     10 C         140.3173  140.2097  167.2981 C.ar    1  UNL1        0.0192
     11 F         138.9734  141.7353  170.2222 F       1  UNL1       -0.1915
     12 C         139.5973  140.4438  169.7834 C.3     1  UNL1        0.3581
     13 F         140.4755  139.6765  170.7268 F       1  UNL1       -0.1915
     14 N         143.2397  141.0802  163.9887 N.pl3   1  UNL1       -0.1958
     15 H         143.9359  140.4224  163.7611 H       1  UNL1        0.2986
     16 C         143.1531  142.3727  163.2324 C.2     1  UNL1        0.3707
     17 N         144.2028  143.4436  163.1935 N.2     1  UNL1        0.0819
     18 N         143.7000  144.5539  162.3192 N.2     1  UNL1       -0.0365
     19 C         142.3396  144.1692  161.8177 C.2     1  UNL1        0.1346
     20 C         141.3650  144.8722  160.9201 C.3     1  UNL1        0.0792
     21 C         140.0524  144.2274  160.5868 C.2     1  UNL1        0.0010
     22 C         139.7144  142.8793  161.1511 C.2     1  UNL1        0.0950
     23 N         140.6891  142.1762  162.0488 N.2     1  UNL1       -0.2354
     24 C         142.0017  142.8211  162.3821 C.2     1  UNL1        0.1834
@<TRIPOS>BOND
     1    11    12    1
     2    12    13    1
     3    12     1    1
     4     1     2   ar
     5     2     3   ar
     6     3     4   ar
     7     4     5   ar
     8     5     6   ar
     9     6     7   ar
    10     7    14    1
    11    14    16    1
    12    16    17    2
    13    17    18    1
    14    18    19    2
    15    19    20    1
    16    20    21    1
    17    21    22    2
    18    22    23    1
    19    23    24    2
    20     7     8   ar
    21     8     9   ar
    22     9    10   ar
    23    10     1   ar
    24    10     5   ar
    25    24    16    1
    26    24    19    1
    27    14    15    1
