@<TRIPOS>MOLECULE
*****
 30 32 0 0 0
SMALL
GASTEIGER

@<TRIPOS>ATOM
      1 C         139.3752  137.6238  164.9095 C.3     1  UNL1        0.0337
      2 C         138.9838  139.0150  164.5077 C.3     1  UNL1        0.1467
      3 N         138.5170  138.3504  163.2466 N.am    1  UNL1       -0.2806
      4 C         137.9519  139.4090  162.3467 C.2     1  UNL1        0.3106
      5 O         137.3712  139.1876  160.9815 O.2     1  UNL1       -0.2521
      6 N         138.0693  140.7278  163.0515 N.am    1  UNL1       -0.2050
      7 C         138.7071  140.4843  164.3872 C.2     1  UNL1        0.2527
      8 O         139.0143  141.5271  165.4208 O.2     1  UNL1       -0.2723
      9 H         138.5720  137.3883  163.0450 H       1  UNL1        0.1516
     10 C         139.5324  139.3887  165.8529 C.ar    1  UNL1        0.0021
     11 C         140.9888  139.7141  166.0049 C.ar    1  UNL1       -0.0010
     12 C         141.5373  140.0878  167.3500 C.ar    1  UNL1        0.0181
     13 C         140.6295  140.1361  168.5432 C.ar    1  UNL1        0.1057
     14 C         139.1732  139.8107  168.3912 C.ar    1  UNL1        0.0181
     15 C         138.6246  139.4370  167.0461 C.ar    1  UNL1       -0.0010
     16 S         141.1781  140.5098  169.8883 S.O2    1  UNL1        0.0104
     17 C         141.7267  140.8834  171.2335 C.3     1  UNL1        0.1816
     18 O         140.2002  139.5813  170.5451 O.2     1  UNL1       -0.1686
     19 O         142.1561  141.4383  169.2316 O.2     1  UNL1       -0.1686
     20 C         137.6267  142.0568  162.5150 C.3     1  UNL1        0.1714
     21 C         138.5621  142.8759  161.6758 C.2     1  UNL1        0.1957
     22 O         138.2363  143.1475  160.2370 O.2     1  UNL1       -0.2894
     23 C         139.8232  143.4235  162.2755 C.ar    1  UNL1        0.0640
     24 C         141.1570  142.9462  161.7824 C.ar    1  UNL1        0.0075
     25 C         142.4182  143.4938  162.3821 C.ar    1  UNL1        0.0299
     26 C         142.3456  144.5187  163.4749 C.ar    1  UNL1        0.1424
     27 F         143.6067  145.0663  164.0746 F       1  UNL1       -0.2041
     28 C         141.0118  144.9960  163.9680 C.ar    1  UNL1        0.0593
     29 C         139.7507  144.4485  163.3684 C.ar    1  UNL1        0.1451
     30 F         138.4169  144.9258  163.8615 F       1  UNL1       -0.2040
@<TRIPOS>BOND
     1     1     2    1
     2     2    10    1
     3    10    11   ar
     4    11    12   ar
     5    12    13   ar
     6    13    16    1
     7    16    17    1
     8    16    18    2
     9    16    19    2
    10    13    14   ar
    11    14    15   ar
    12     2     3    1
    13     3     4   am
    14     4     5    2
    15     4     6   am
    16     6    20    1
    17    20    21    1
    18    21    22    2
    19    21    23    1
    20    23    24   ar
    21    24    25   ar
    22    25    26   ar
    23    26    27    1
    24    26    28   ar
    25    28    29   ar
    26    29    30    1
    27     6     7   am
    28     7     8    2
    29     7     2    1
    30    15    10   ar
    31    29    23   ar
    32     3     9    1
@<TRIPOS>MOLECULE
*****
 30 32 0 0 0
SMALL
GASTEIGER

@<TRIPOS>ATOM
      1 C         139.0341  137.5206  164.8302 C.3     1  UNL1        0.0337
      2 C         139.4573  138.7201  164.0351 C.3     1  UNL1        0.1467
      3 N         138.6482  138.0855  162.9430 N.am    1  UNL1       -0.2806
      4 C         138.7221  138.9731  161.7361 C.2     1  UNL1        0.3106
      5 O         138.0578  138.7217  160.4149 O.2     1  UNL1       -0.2521
      6 N         139.5768  140.1561  162.0822 N.am    1  UNL1       -0.2050
      7 C         140.0312  139.9998  163.5031 C.2     1  UNL1        0.2527
      8 O         140.9059  140.9554  164.2593 O.2     1  UNL1       -0.2723
      9 H         138.1553  137.2358  163.0071 H       1  UNL1        0.1516
     10 C         140.1779  139.1038  165.2936 C.ar    1  UNL1        0.0021
     11 C         141.6158  138.7203  165.4811 C.ar    1  UNL1       -0.0010
     12 C         142.3364  139.1041  166.7395 C.ar    1  UNL1        0.0181
     13 C         141.6190  139.8713  167.8103 C.ar    1  UNL1        0.1057
     14 C         140.1810  140.2548  167.6227 C.ar    1  UNL1        0.0181
     15 C         139.4605  139.8711  166.3644 C.ar    1  UNL1       -0.0010
     16 S         142.3396  140.2551  169.0687 S.O2    1  UNL1        0.0104
     17 C         143.0602  140.6388  170.3271 C.3     1  UNL1        0.1816
     18 O         143.0658  138.9427  169.0530 O.2     1  UNL1       -0.1686
     19 O         141.6134  141.5674  169.0844 O.2     1  UNL1       -0.1686
     20 C         139.9173  141.2955  161.1679 C.3     1  UNL1        0.1714
     21 C         139.1086  142.5582  161.2099 C.2     1  UNL1        0.1957
     22 O         138.4752  143.0853  159.9565 O.2     1  UNL1       -0.2894
     23 C         138.9333  143.2938  162.5053 C.ar    1  UNL1        0.0640
     24 C         139.8828  144.3937  162.8777 C.ar    1  UNL1        0.0075
     25 C         139.7075  145.1293  164.1731 C.ar    1  UNL1        0.0299
     26 C         138.5828  144.7650  165.0963 C.ar    1  UNL1        0.1424
     27 F         138.4075  145.5006  166.3917 F       1  UNL1       -0.2041
     28 C         137.6334  143.6650  164.7240 C.ar    1  UNL1        0.0593
     29 C         137.8086  142.9294  163.4286 C.ar    1  UNL1        0.1451
     30 F         136.8591  141.8295  163.0563 F       1  UNL1       -0.2040
@<TRIPOS>BOND
     1     1     2    1
     2     2    10    1
     3    10    11   ar
     4    11    12   ar
     5    12    13   ar
     6    13    16    1
     7    16    17    1
     8    16    18    2
     9    16    19    2
    10    13    14   ar
    11    14    15   ar
    12     2     3    1
    13     3     4   am
    14     4     5    2
    15     4     6   am
    16     6    20    1
    17    20    21    1
    18    21    22    2
    19    21    23    1
    20    23    24   ar
    21    24    25   ar
    22    25    26   ar
    23    26    27    1
    24    26    28   ar
    25    28    29   ar
    26    29    30    1
    27     6     7   am
    28     7     8    2
    29     7     2    1
    30    15    10   ar
    31    29    23   ar
    32     3     9    1
@<TRIPOS>MOLECULE
*****
 30 32 0 0 0
SMALL
GASTEIGER

@<TRIPOS>ATOM
      1 C         145.2569  139.5375  164.3615 C.3     1  UNL1        0.0337
      2 C         143.9179  139.7564  163.7218 C.3     1  UNL1        0.1467
      3 N         144.5421  139.0647  162.5463 N.am    1  UNL1       -0.2806
      4 C         143.5169  138.9911  161.4538 C.2     1  UNL1        0.3106
      5 O         143.7147  138.3788  160.0989 O.2     1  UNL1       -0.2521
      6 N         142.2591  139.6374  161.9541 N.am    1  UNL1       -0.2050
      7 C         142.5069  140.1103  163.3559 C.2     1  UNL1        0.2527
      8 O         141.5175  140.8138  164.2369 O.2     1  UNL1       -0.2723
      9 H         145.4629  138.7196  162.4999 H       1  UNL1        0.1516
     10 C         143.5737  140.4024  165.0312 C.ar    1  UNL1        0.0021
     11 C         143.8240  141.8674  165.2334 C.ar    1  UNL1       -0.0010
     12 C         143.4797  142.5133  166.5427 C.ar    1  UNL1        0.0181
     13 C         142.8852  141.6942  167.6497 C.ar    1  UNL1        0.1057
     14 C         142.6349  140.2291  167.4475 C.ar    1  UNL1        0.0181
     15 C         142.9791  139.5832  166.1382 C.ar    1  UNL1       -0.0010
     16 S         142.5410  142.3402  168.9591 S.O2    1  UNL1        0.0104
     17 C         142.1967  142.9861  170.2683 C.3     1  UNL1        0.1816
     18 O         141.1133  141.9098  168.7960 O.2     1  UNL1       -0.1686
     19 O         143.9686  142.7705  169.1222 O.2     1  UNL1       -0.1686
     20 C         140.9784  139.7848  161.1873 C.3     1  UNL1        0.1714
     21 C         139.7975  138.9245  161.5274 C.2     1  UNL1        0.1957
     22 O         139.1503  138.0854  160.4658 O.2     1  UNL1       -0.2894
     23 C         139.2638  138.9035  162.9291 C.ar    1  UNL1        0.0640
     24 C         139.4560  137.6879  163.7866 C.ar    1  UNL1        0.0075
     25 C         138.9223  137.6669  165.1883 C.ar    1  UNL1        0.0299
     26 C         138.1964  138.8614  165.7325 C.ar    1  UNL1        0.1424
     27 F         137.6628  138.8404  167.1342 F       1  UNL1       -0.2041
     28 C         138.0042  140.0770  164.8749 C.ar    1  UNL1        0.0593
     29 C         138.5379  140.0981  163.4733 C.ar    1  UNL1        0.1451
     30 F         138.3457  141.3137  162.6158 F       1  UNL1       -0.2040
@<TRIPOS>BOND
     1     1     2    1
     2     2    10    1
     3    10    11   ar
     4    11    12   ar
     5    12    13   ar
     6    13    16    1
     7    16    17    1
     8    16    18    2
     9    16    19    2
    10    13    14   ar
    11    14    15   ar
    12     2     3    1
    13     3     4   am
    14     4     5    2
    15     4     6   am
    16     6    20    1
    17    20    21    1
    18    21    22    2
    19    21    23    1
    20    23    24   ar
    21    24    25   ar
    22    25    26   ar
    23    26    27    1
    24    26    28   ar
    25    28    29   ar
    26    29    30    1
    27     6     7   am
    28     7     8    2
    29     7     2    1
    30    15    10   ar
    31    29    23   ar
    32     3     9    1
@<TRIPOS>MOLECULE
*****
 30 32 0 0 0
SMALL
GASTEIGER

@<TRIPOS>ATOM
      1 C         139.3091  137.6656  164.8406 C.3     1  UNL1        0.0337
      2 C         138.9923  139.0751  164.4369 C.3     1  UNL1        0.1467
      3 N         138.4743  138.4330  163.1842 N.am    1  UNL1       -0.2806
      4 C         137.9595  139.5184  162.2859 C.2     1  UNL1        0.3106
      5 O         137.3515  139.3249  160.9283 O.2     1  UNL1       -0.2521
      6 N         138.1593  140.8312  162.9834 N.am    1  UNL1       -0.2050
      7 C         138.7976  140.5572  164.3129 C.2     1  UNL1        0.2527
      8 O         139.1751  141.5849  165.3382 O.2     1  UNL1       -0.2723
      9 H         138.4725  137.4686  162.9863 H       1  UNL1        0.1516
     10 C         139.5766  139.4224  165.7742 C.ar    1  UNL1        0.0021
     11 C         138.6880  139.5185  166.9788 C.ar    1  UNL1       -0.0010
     12 C         139.2723  139.8658  168.3159 C.ar    1  UNL1        0.0181
     13 C         140.7452  140.1170  168.4484 C.ar    1  UNL1        0.1057
     14 C         141.6338  140.0210  167.2437 C.ar    1  UNL1        0.0181
     15 C         141.0495  139.6736  165.9066 C.ar    1  UNL1       -0.0010
     16 S         141.3295  140.4644  169.7856 S.O2    1  UNL1        0.0104
     17 C         141.9137  140.8117  171.1227 C.3     1  UNL1        0.1816
     18 O         140.3828  139.5077  170.4477 O.2     1  UNL1       -0.1686
     19 O         142.2762  141.4211  169.1235 O.2     1  UNL1       -0.1686
     20 C         137.7863  142.1809  162.4459 C.3     1  UNL1        0.1714
     21 C         138.7767  142.9663  161.6381 C.2     1  UNL1        0.1957
     22 O         138.5349  143.2003  160.1763 O.2     1  UNL1       -0.2894
     23 C         140.0088  143.5177  162.2921 C.ar    1  UNL1        0.0640
     24 C         140.0368  144.9434  162.7575 C.ar    1  UNL1        0.0075
     25 C         141.2689  145.4948  163.4116 C.ar    1  UNL1        0.0299
     26 C         142.4731  144.6205  163.6003 C.ar    1  UNL1        0.1424
     27 F         143.7052  145.1719  164.2544 F       1  UNL1       -0.2041
     28 C         142.4450  143.1948  163.1350 C.ar    1  UNL1        0.0593
     29 C         141.2130  142.6434  162.4809 C.ar    1  UNL1        0.1451
     30 F         141.1850  141.2177  162.0156 F       1  UNL1       -0.2040
@<TRIPOS>BOND
     1     1     2    1
     2     2    10    1
     3    10    11   ar
     4    11    12   ar
     5    12    13   ar
     6    13    16    1
     7    16    17    1
     8    16    18    2
     9    16    19    2
    10    13    14   ar
    11    14    15   ar
    12     2     3    1
    13     3     4   am
    14     4     5    2
    15     4     6   am
    16     6    20    1
    17    20    21    1
    18    21    22    2
    19    21    23    1
    20    23    24   ar
    21    24    25   ar
    22    25    26   ar
    23    26    27    1
    24    26    28   ar
    25    28    29   ar
    26    29    30    1
    27     6     7   am
    28     7     8    2
    29     7     2    1
    30    15    10   ar
    31    29    23   ar
    32     3     9    1
@<TRIPOS>MOLECULE
*****
 30 32 0 0 0
SMALL
GASTEIGER

@<TRIPOS>ATOM
      1 C         145.7838  141.5082  163.9778 C.3     1  UNL1        0.0337
      2 C         144.4760  141.7224  163.2753 C.3     1  UNL1        0.1467
      3 N         145.3431  142.0895  162.1077 N.am    1  UNL1       -0.2806
      4 C         144.4470  142.4444  160.9583 C.2     1  UNL1        0.3106
      5 O         144.8934  142.8720  159.5917 O.2     1  UNL1       -0.2521
      6 N         143.0261  142.2966  161.4155 N.am    1  UNL1       -0.2050
      7 C         143.0440  141.8504  162.8475 C.2     1  UNL1        0.2527
      8 O         141.8410  141.5797  163.7018 O.2     1  UNL1       -0.2723
      9 H         146.3275  142.0963  162.0975 H       1  UNL1        0.1516
     10 C         143.8823  141.3104  164.5898 C.ar    1  UNL1        0.0021
     11 C         143.6173  139.8612  164.8719 C.ar    1  UNL1       -0.0010
     12 C         143.0237  139.4494  166.1863 C.ar    1  UNL1        0.0181
     13 C         142.6950  140.4867  167.2188 C.ar    1  UNL1        0.1057
     14 C         142.9599  141.9359  166.9367 C.ar    1  UNL1        0.0181
     15 C         143.5536  142.3478  165.6222 C.ar    1  UNL1       -0.0010
     16 S         142.1013  140.0748  168.5333 S.O2    1  UNL1        0.0104
     17 C         141.5076  139.6629  169.8478 C.3     1  UNL1        0.1816
     18 O         141.1359  141.2202  168.4562 O.2     1  UNL1       -0.1686
     19 O         143.0667  138.9294  168.6104 O.2     1  UNL1       -0.1686
     20 C         141.8021  142.5505  160.5864 C.3     1  UNL1        0.1714
     21 C         141.0351  143.8288  160.7533 C.2     1  UNL1        0.1957
     22 O         141.2285  144.9523  159.7785 O.2     1  UNL1       -0.2894
     23 C         140.0748  143.9835  161.8951 C.ar    1  UNL1        0.0640
     24 C         138.7052  143.3777  161.8106 C.ar    1  UNL1        0.0075
     25 C         137.7448  143.5324  162.9524 C.ar    1  UNL1        0.0299
     26 C         138.1540  144.2929  164.1788 C.ar    1  UNL1        0.1424
     27 F         137.1936  144.4476  165.3206 F       1  UNL1       -0.2041
     28 C         139.5236  144.8988  164.2634 C.ar    1  UNL1        0.0593
     29 C         140.4839  144.7441  163.1216 C.ar    1  UNL1        0.1451
     30 F         141.8536  145.3500  163.2062 F       1  UNL1       -0.2040
@<TRIPOS>BOND
     1     1     2    1
     2     2    10    1
     3    10    11   ar
     4    11    12   ar
     5    12    13   ar
     6    13    16    1
     7    16    17    1
     8    16    18    2
     9    16    19    2
    10    13    14   ar
    11    14    15   ar
    12     2     3    1
    13     3     4   am
    14     4     5    2
    15     4     6   am
    16     6    20    1
    17    20    21    1
    18    21    22    2
    19    21    23    1
    20    23    24   ar
    21    24    25   ar
    22    25    26   ar
    23    26    27    1
    24    26    28   ar
    25    28    29   ar
    26    29    30    1
    27     6     7   am
    28     7     8    2
    29     7     2    1
    30    15    10   ar
    31    29    23   ar
    32     3     9    1
@<TRIPOS>MOLECULE
*****
 30 32 0 0 0
SMALL
GASTEIGER

@<TRIPOS>ATOM
      1 C         139.2618  137.4681  164.7375 C.3     1  UNL1        0.0337
      2 C         139.6545  138.6961  163.9709 C.3     1  UNL1        0.1467
      3 N         138.8886  138.0519  162.8535 N.am    1  UNL1       -0.2806
      4 C         138.9510  138.9628  161.6635 C.2     1  UNL1        0.3106
      5 O         138.3197  138.7109  160.3263 O.2     1  UNL1       -0.2521
      6 N         139.7554  140.1700  162.0452 N.am    1  UNL1       -0.2050
      7 C         140.1902  140.0051  163.4714 C.2     1  UNL1        0.2527
      8 O         141.0158  140.9784  164.2595 O.2     1  UNL1       -0.2723
      9 H         138.4262  137.1837  162.8941 H       1  UNL1        0.1516
     10 C         140.3383  139.0835  165.2486 C.ar    1  UNL1        0.0021
     11 C         139.5816  139.8279  166.3083 C.ar    1  UNL1       -0.0010
     12 C         140.2654  140.2153  167.5859 C.ar    1  UNL1        0.0181
     13 C         141.7059  139.8582  167.8038 C.ar    1  UNL1        0.1057
     14 C         142.4626  139.1137  166.7440 C.ar    1  UNL1        0.0181
     15 C         141.7788  138.7264  165.4664 C.ar    1  UNL1       -0.0010
     16 S         142.3897  140.2456  169.0815 S.O2    1  UNL1        0.0104
     17 C         143.0735  140.6329  170.3591 C.3     1  UNL1        0.1816
     18 O         142.9794  138.8701  169.1829 O.2     1  UNL1       -0.1686
     19 O         141.8000  141.6210  168.9801 O.2     1  UNL1       -0.1686
     20 C         140.0698  141.3370  161.1569 C.3     1  UNL1        0.1714
     21 C         139.2102  142.5656  161.2004 C.2     1  UNL1        0.1957
     22 O         138.5491  143.0632  159.9493 O.2     1  UNL1       -0.2894
     23 C         139.0117  143.2965  162.4952 C.ar    1  UNL1        0.0640
     24 C         137.8022  143.0163  163.3369 C.ar    1  UNL1        0.0075
     25 C         137.6037  143.7473  164.6316 C.ar    1  UNL1        0.0299
     26 C         138.6148  144.7584  165.0847 C.ar    1  UNL1        0.1424
     27 F         138.4163  145.4894  166.3794 F       1  UNL1       -0.2041
     28 C         139.8243  145.0386  164.2430 C.ar    1  UNL1        0.0593
     29 C         140.0228  144.3077  162.9483 C.ar    1  UNL1        0.1451
     30 F         141.2324  144.5879  162.1066 F       1  UNL1       -0.2040
@<TRIPOS>BOND
     1     1     2    1
     2     2    10    1
     3    10    11   ar
     4    11    12   ar
     5    12    13   ar
     6    13    16    1
     7    16    17    1
     8    16    18    2
     9    16    19    2
    10    13    14   ar
    11    14    15   ar
    12     2     3    1
    13     3     4   am
    14     4     5    2
    15     4     6   am
    16     6    20    1
    17    20    21    1
    18    21    22    2
    19    21    23    1
    20    23    24   ar
    21    24    25   ar
    22    25    26   ar
    23    26    27    1
    24    26    28   ar
    25    28    29   ar
    26    29    30    1
    27     6     7   am
    28     7     8    2
    29     7     2    1
    30    15    10   ar
    31    29    23   ar
    32     3     9    1
@<TRIPOS>MOLECULE
*****
 30 32 0 0 0
SMALL
GASTEIGER

@<TRIPOS>ATOM
      1 C         144.2235  139.7106  164.5060 C.3     1  UNL1        0.0337
      2 C         142.7575  139.3961  164.5495 C.3     1  UNL1        0.1467
      3 N         143.0343  138.6757  163.2633 N.am    1  UNL1       -0.2806
      4 C         141.7455  138.0804  162.7788 C.2     1  UNL1        0.3106
      5 O         141.5623  137.2742  161.5273 O.2     1  UNL1       -0.2521
      6 N         140.6722  138.4329  163.7656 N.am    1  UNL1       -0.2050
      7 C         141.2977  139.2461  164.8599 C.2     1  UNL1        0.2527
      8 O         140.5878  139.8102  166.0550 O.2     1  UNL1       -0.2723
      9 H         143.9083  138.6059  162.8156 H       1  UNL1        0.1516
     10 C         142.7872  140.1823  165.8267 C.ar    1  UNL1        0.0021
     11 C         142.7798  139.4696  167.1464 C.ar    1  UNL1       -0.0010
     12 C         142.8095  140.2558  168.4235 C.ar    1  UNL1        0.0181
     13 C         142.8466  141.7547  168.3808 C.ar    1  UNL1        0.1057
     14 C         142.8540  142.4675  167.0610 C.ar    1  UNL1        0.0181
     15 C         142.8243  141.6813  165.7839 C.ar    1  UNL1       -0.0010
     16 S         142.8763  142.5409  169.6580 S.O2    1  UNL1        0.0104
     17 C         142.9060  143.3271  170.9351 C.3     1  UNL1        0.1816
     18 O         141.3913  142.3784  169.7925 O.2     1  UNL1       -0.1686
     19 O         144.3614  142.7034  169.5235 O.2     1  UNL1       -0.1686
     20 C         139.2272  138.0410  163.6741 C.3     1  UNL1        0.1714
     21 C         138.3204  138.7403  162.7051 C.2     1  UNL1        0.1957
     22 O         137.5692  137.9490  161.6759 O.2     1  UNL1       -0.2894
     23 C         138.1649  140.2310  162.7655 C.ar    1  UNL1        0.0640
     24 C         138.3240  141.0527  161.5208 C.ar    1  UNL1        0.0075
     25 C         138.1685  142.5434  161.5812 C.ar    1  UNL1        0.0299
     26 C         137.8539  143.2124  162.8863 C.ar    1  UNL1        0.1424
     27 F         137.6983  144.7031  162.9467 F       1  UNL1       -0.2041
     28 C         137.6948  142.3907  164.1310 C.ar    1  UNL1        0.0593
     29 C         137.8503  140.9001  164.0707 C.ar    1  UNL1        0.1451
     30 F         137.6912  140.0783  165.3155 F       1  UNL1       -0.2040
@<TRIPOS>BOND
     1     1     2    1
     2     2    10    1
     3    10    11   ar
     4    11    12   ar
     5    12    13   ar
     6    13    16    1
     7    16    17    1
     8    16    18    2
     9    16    19    2
    10    13    14   ar
    11    14    15   ar
    12     2     3    1
    13     3     4   am
    14     4     5    2
    15     4     6   am
    16     6    20    1
    17    20    21    1
    18    21    22    2
    19    21    23    1
    20    23    24   ar
    21    24    25   ar
    22    25    26   ar
    23    26    27    1
    24    26    28   ar
    25    28    29   ar
    26    29    30    1
    27     6     7   am
    28     7     8    2
    29     7     2    1
    30    15    10   ar
    31    29    23   ar
    32     3     9    1
@<TRIPOS>MOLECULE
*****
 30 32 0 0 0
SMALL
GASTEIGER

@<TRIPOS>ATOM
      1 C         145.0230  139.9836  164.3562 C.3     1  UNL1        0.0337
      2 C         143.6288  140.2291  163.8604 C.3     1  UNL1        0.1467
      3 N         144.2446  140.0338  162.5066 N.am    1  UNL1       -0.2806
      4 C         143.1631  140.1888  161.4788 C.2     1  UNL1        0.3106
      5 O         143.3356  140.0730  159.9933 O.2     1  UNL1       -0.2521
      6 N         141.8790  140.4799  162.1973 N.am    1  UNL1       -0.2050
      7 C         142.1668  140.5048  163.6692 C.2     1  UNL1        0.2527
      8 O         141.1679  140.7606  164.7587 O.2     1  UNL1       -0.2723
      9 H         145.1921  139.8383  162.3246 H       1  UNL1        0.1516
     10 C         143.3045  140.3731  165.3179 C.ar    1  UNL1        0.0021
     11 C         143.0407  139.1543  166.1515 C.ar    1  UNL1       -0.0010
     12 C         142.7165  139.2984  167.6089 C.ar    1  UNL1        0.0181
     13 C         142.6560  140.6612  168.2327 C.ar    1  UNL1        0.1057
     14 C         142.9198  141.8799  167.3991 C.ar    1  UNL1        0.0181
     15 C         143.2441  141.7359  165.9417 C.ar    1  UNL1       -0.0010
     16 S         142.3318  140.8051  169.6902 S.O2    1  UNL1        0.0104
     17 C         142.0075  140.9491  171.1476 C.3     1  UNL1        0.1816
     18 O         143.1475  139.5832  169.9923 O.2     1  UNL1       -0.1686
     19 O         141.5160  142.0271  169.3880 O.2     1  UNL1       -0.1686
     20 C         140.5419  140.7063  161.5564 C.3     1  UNL1        0.1714
     21 C         140.0368  142.1034  161.3485 C.2     1  UNL1        0.1957
     22 O         139.9397  142.6673  159.9619 O.2     1  UNL1       -0.2894
     23 C         139.6287  142.9364  162.5272 C.ar    1  UNL1        0.0640
     24 C         140.6096  143.8844  163.1512 C.ar    1  UNL1        0.0075
     25 C         140.2015  144.7175  164.3299 C.ar    1  UNL1        0.0299
     26 C         138.8127  144.6027  164.8848 C.ar    1  UNL1        0.1424
     27 F         138.4047  145.4358  166.0635 F       1  UNL1       -0.2041
     28 C         137.8319  143.6547  164.2608 C.ar    1  UNL1        0.0593
     29 C         138.2398  142.8216  163.0821 C.ar    1  UNL1        0.1451
     30 F         137.2590  141.8736  162.4582 F       1  UNL1       -0.2040
@<TRIPOS>BOND
     1     1     2    1
     2     2    10    1
     3    10    11   ar
     4    11    12   ar
     5    12    13   ar
     6    13    16    1
     7    16    17    1
     8    16    18    2
     9    16    19    2
    10    13    14   ar
    11    14    15   ar
    12     2     3    1
    13     3     4   am
    14     4     5    2
    15     4     6   am
    16     6    20    1
    17    20    21    1
    18    21    22    2
    19    21    23    1
    20    23    24   ar
    21    24    25   ar
    22    25    26   ar
    23    26    27    1
    24    26    28   ar
    25    28    29   ar
    26    29    30    1
    27     6     7   am
    28     7     8    2
    29     7     2    1
    30    15    10   ar
    31    29    23   ar
    32     3     9    1
@<TRIPOS>MOLECULE
*****
 30 32 0 0 0
SMALL
GASTEIGER

@<TRIPOS>ATOM
      1 C         138.9739  139.4604  163.6141 C.3     1  UNL1        0.0337
      2 C         139.0773  140.9502  163.7545 C.3     1  UNL1        0.1467
      3 N         138.3957  140.9655  162.4183 N.am    1  UNL1       -0.2806
      4 C         138.2158  142.3964  162.0062 C.2     1  UNL1        0.3106
      5 O         137.5776  142.8744  160.7357 O.2     1  UNL1       -0.2521
      6 N         138.7862  143.2656  163.0875 N.am    1  UNL1       -0.2050
      7 C         139.3186  142.3717  164.1680 C.2     1  UNL1        0.2527
      8 O         139.9768  142.8206  165.4390 O.2     1  UNL1       -0.2723
      9 H         138.1156  140.1751  161.9025 H       1  UNL1        0.1516
     10 C         139.7373  140.6234  165.0613 C.ar    1  UNL1        0.0021
     11 C         141.2335  140.5728  165.1539 C.ar    1  UNL1       -0.0010
     12 C         141.8934  140.2460  166.4606 C.ar    1  UNL1        0.0181
     13 C         141.0571  139.9698  167.6748 C.ar    1  UNL1        0.1057
     14 C         139.5608  140.0204  167.5822 C.ar    1  UNL1        0.0181
     15 C         138.9009  140.3472  166.2755 C.ar    1  UNL1       -0.0010
     16 S         141.7171  139.6430  168.9816 S.O2    1  UNL1        0.0104
     17 C         142.3770  139.3162  170.2884 C.3     1  UNL1        0.1816
     18 O         140.3808  139.6679  169.6626 O.2     1  UNL1       -0.1686
     19 O         143.0533  139.6180  168.3006 O.2     1  UNL1       -0.1686
     20 C         138.8185  144.7652  163.0882 C.3     1  UNL1        0.1714
     21 C         139.9921  145.4903  162.4993 C.2     1  UNL1        0.1957
     22 O         139.7957  146.8213  161.8361 O.2     1  UNL1       -0.2894
     23 C         141.3623  144.8844  162.5737 C.ar    1  UNL1        0.0640
     24 C         142.2557  145.1910  163.7390 C.ar    1  UNL1        0.0075
     25 C         143.6258  144.5851  163.8134 C.ar    1  UNL1        0.0299
     26 C         144.1026  143.6725  162.7226 C.ar    1  UNL1        0.1424
     27 F         145.4728  143.0666  162.7970 F       1  UNL1       -0.2041
     28 C         143.2092  143.3659  161.5573 C.ar    1  UNL1        0.0593
     29 C         141.8391  143.9718  161.4828 C.ar    1  UNL1        0.1451
     30 F         140.9457  143.6652  160.3176 F       1  UNL1       -0.2040
@<TRIPOS>BOND
     1     1     2    1
     2     2    10    1
     3    10    11   ar
     4    11    12   ar
     5    12    13   ar
     6    13    16    1
     7    16    17    1
     8    16    18    2
     9    16    19    2
    10    13    14   ar
    11    14    15   ar
    12     2     3    1
    13     3     4   am
    14     4     5    2
    15     4     6   am
    16     6    20    1
    17    20    21    1
    18    21    22    2
    19    21    23    1
    20    23    24   ar
    21    24    25   ar
    22    25    26   ar
    23    26    27    1
    24    26    28   ar
    25    28    29   ar
    26    29    30    1
    27     6     7   am
    28     7     8    2
    29     7     2    1
    30    15    10   ar
    31    29    23   ar
    32     3     9    1
