@<TRIPOS>MOLECULE
*****
 31 35 0 0 0
SMALL
GASTEIGER

@<TRIPOS>ATOM
      1 C         143.9474  142.9565  166.0023 C.3     1  UNL1        0.0285
      2 C         142.8172  142.1634  165.4161 C.3     1  UNL1        0.1321
      3 C         142.6523  142.0799  163.9276 C.3     1  UNL1        0.2279
      4 O         141.5221  141.2868  163.3415 O.3     1  UNL1       -0.4707
      5 C         140.5567  140.5772  164.2439 C.ar    1  UNL1        0.1675
      6 C         139.4265  139.7841  163.6577 C.ar    1  UNL1        0.0844
      7 C         138.4611  139.0744  164.5601 C.ar    1  UNL1        0.0280
      8 C         138.6259  139.1579  166.0488 C.ar    1  UNL1        0.0712
      9 C         139.7561  139.9510  166.6349 C.ar    1  UNL1        0.0288
     10 C         139.9210  140.0344  168.1235 C.ar    1  UNL1        0.0081
     11 C         141.0512  140.8275  168.7096 C.ar    1  UNL1        0.0702
     12 C         142.0166  141.5371  167.8072 C.ar    1  UNL1        0.2620
     13 O         143.1469  142.3302  168.3933 O.2     1  UNL1       -0.2669
     14 N         141.8518  141.4537  166.3185 N.ar    1  UNL1       -0.2909
     15 C         140.7216  140.6606  165.7324 C.ar    1  UNL1        0.0985
     16 N         139.2616  139.7007  162.1692 N.pl3   1  UNL1       -0.3050
     17 C         139.5347  138.4961  161.3180 C.3     1  UNL1        0.0910
     18 C         139.2366  138.8580  159.8932 C.3     1  UNL1        0.0244
     19 C         138.7792  140.2863  159.8637 C.3     1  UNL1        0.0344
     20 C         138.7947  140.8071  161.2704 C.3     1  UNL1        0.0921
     21 C         138.3770  141.0583  158.6421 C.3     1  UNL1        0.0406
     22 N         138.1282  139.9269  157.6892 N.3     1  UNL1       -0.3231
     23 C         138.0612  142.2231  157.7515 C.3     1  UNL1        0.0156
     24 C         138.4860  142.4578  159.1708 C.3     1  UNL1        0.0156
     25 H         138.3056  139.0400  158.1607 H       1  UNL1        0.1188
     26 H         138.7510  140.0155  156.8862 H       1  UNL1        0.1188
     27 C         141.2161  140.9109  170.1982 C.2     1  UNL1        0.0775
     28 O         140.1774  141.6030  171.0302 O.co2   1  UNL1       -0.5444
     29 O         142.4196  140.3023  170.8548 O.co2   1  UNL1       -0.5444
     30 C         137.6605  138.4482  166.9512 C.1     1  UNL1        0.1005
     31 N         136.6951  137.7385  167.8536 N.1     1  UNL1       -0.1908
@<TRIPOS>UNITY_ATOM_ATTR
28 1
charge -1
@<TRIPOS>BOND
     1     2     1    1
     2     2     3    1
     3     3     4    1
     4     4     5    1
     5     5     6   ar
     6     6    16    1
     7    16    17    1
     8    17    18    1
     9    18    19    1
    10    19    21    1
    11    21    22    1
    12    21    23    1
    13    23    24    1
    14    19    20    1
    15     6     7   ar
    16     7     8   ar
    17     8    30    1
    18    30    31    3
    19     8     9   ar
    20     9    10   ar
    21    10    11   ar
    22    11    27    1
    23    27    28   ar
    24    27    29   ar
    25    11    12   ar
    26    12    13    2
    27    12    14   ar
    28    14    15   ar
    29    14     2    1
    30    15     5   ar
    31    20    16    1
    32    15     9   ar
    33    24    21    1
    34    22    25    1
    35    22    26    1
@<TRIPOS>MOLECULE
*****
 31 35 0 0 0
SMALL
GASTEIGER

@<TRIPOS>ATOM
      1 C         143.8914  143.0165  165.9604 C.3     1  UNL1        0.0285
      2 C         142.7407  142.2456  165.3846 C.3     1  UNL1        0.1321
      3 C         142.5235  142.2189  163.9006 C.3     1  UNL1        0.2279
      4 O         141.3728  141.4479  163.3248 O.3     1  UNL1       -0.4707
      5 C         140.4393  140.7038  164.2330 C.ar    1  UNL1        0.1675
      6 C         139.2885  139.9329  163.6572 C.ar    1  UNL1        0.0844
      7 C         138.3550  139.1887  164.5653 C.ar    1  UNL1        0.0280
      8 C         138.5722  139.2154  166.0493 C.ar    1  UNL1        0.0712
      9 C         139.7230  139.9863  166.6251 C.ar    1  UNL1        0.0288
     10 C         139.9402  140.0130  168.1090 C.ar    1  UNL1        0.0081
     11 C         141.0909  140.7839  168.6848 C.ar    1  UNL1        0.0702
     12 C         142.0244  141.5281  167.7767 C.ar    1  UNL1        0.2620
     13 O         143.1751  142.2990  168.3525 O.2     1  UNL1       -0.2669
     14 N         141.8072  141.5014  166.2927 N.ar    1  UNL1       -0.2909
     15 C         140.6565  140.7305  165.7169 C.ar    1  UNL1        0.0985
     16 N         139.0713  139.9061  162.1733 N.pl3   1  UNL1       -0.3050
     17 C         137.9288  140.5417  161.4378 C.3     1  UNL1        0.0910
     18 C         138.1098  140.2675  159.9742 C.3     1  UNL1        0.0244
     19 C         139.3642  139.4625  159.8050 C.3     1  UNL1        0.0344
     20 C         139.9584  139.2392  161.1642 C.3     1  UNL1        0.0921
     21 C         139.9257  138.9678  158.5051 C.3     1  UNL1        0.0406
     22 N         138.7784  139.2792  157.5904 N.3     1  UNL1       -0.3231
     23 C         140.8856  138.3649  157.5228 C.3     1  UNL1        0.0156
     24 C         141.2680  138.4846  158.9683 C.3     1  UNL1        0.0156
     25 H         138.0230  139.7071  158.1259 H       1  UNL1        0.1188
     26 H         138.4437  138.4175  157.1593 H       1  UNL1        0.1188
     27 C         141.3081  140.8106  170.1688 C.2     1  UNL1        0.0775
     28 O         140.2919  141.4555  171.0640 O.co2   1  UNL1       -0.5444
     29 O         142.5415  140.1924  170.7575 O.co2   1  UNL1       -0.5444
     30 C         137.6387  138.4712  166.9574 C.1     1  UNL1        0.1005
     31 N         136.7052  137.7269  167.8656 N.1     1  UNL1       -0.1908
@<TRIPOS>UNITY_ATOM_ATTR
28 1
charge -1
@<TRIPOS>BOND
     1     2     1    1
     2     2     3    1
     3     3     4    1
     4     4     5    1
     5     5     6   ar
     6     6    16    1
     7    16    17    1
     8    17    18    1
     9    18    19    1
    10    19    21    1
    11    21    22    1
    12    21    23    1
    13    23    24    1
    14    19    20    1
    15     6     7   ar
    16     7     8   ar
    17     8    30    1
    18    30    31    3
    19     8     9   ar
    20     9    10   ar
    21    10    11   ar
    22    11    27    1
    23    27    28   ar
    24    27    29   ar
    25    11    12   ar
    26    12    13    2
    27    12    14   ar
    28    14    15   ar
    29    14     2    1
    30    15     5   ar
    31    20    16    1
    32    15     9   ar
    33    24    21    1
    34    22    25    1
    35    22    26    1
@<TRIPOS>MOLECULE
*****
 31 35 0 0 0
SMALL
GASTEIGER

@<TRIPOS>ATOM
      1 C         137.8169  138.7528  167.2112 C.3     1  UNL1        0.0285
      2 C         138.7779  139.3368  166.2186 C.3     1  UNL1        0.1321
      3 C         138.6253  139.0315  164.7579 C.3     1  UNL1        0.2279
      4 O         139.5863  139.6155  163.7652 O.3     1  UNL1       -0.4707
      5 C         140.6999  140.5047  164.2332 C.ar    1  UNL1        0.1675
      6 C         141.6609  141.0887  163.2405 C.ar    1  UNL1        0.0844
      7 C         142.7745  141.9780  163.7084 C.ar    1  UNL1        0.0280
      8 C         142.9272  142.2834  165.1691 C.ar    1  UNL1        0.0712
      9 C         141.9662  141.6994  166.1618 C.ar    1  UNL1        0.0288
     10 C         142.1188  142.0047  167.6224 C.ar    1  UNL1        0.0081
     11 C         141.1578  141.4207  168.6151 C.ar    1  UNL1        0.0702
     12 C         140.0442  140.5314  168.1472 C.ar    1  UNL1        0.2620
     13 O         139.0832  139.9474  169.1399 O.2     1  UNL1       -0.2669
     14 N         139.8915  140.2261  166.6865 N.ar    1  UNL1       -0.2909
     15 C         140.8525  140.8100  165.6938 C.ar    1  UNL1        0.0985
     16 N         141.5083  140.7834  161.7799 N.pl3   1  UNL1       -0.3050
     17 C         140.6016  141.4957  160.8202 C.3     1  UNL1        0.0910
     18 C         140.7685  140.8647  159.4696 C.3     1  UNL1        0.0244
     19 C         141.7783  139.7625  159.5945 C.3     1  UNL1        0.0344
     20 C         142.2355  139.7123  161.0223 C.3     1  UNL1        0.0921
     21 C         142.2484  138.8677  158.4862 C.3     1  UNL1        0.0406
     22 N         143.7242  139.1287  158.5489 N.3     1  UNL1       -0.3231
     23 C         142.2059  137.8824  157.3561 C.3     1  UNL1        0.0156
     24 C         140.9358  138.2961  158.0386 C.3     1  UNL1        0.0156
     25 H         143.9195  139.7998  159.2917 H       1  UNL1        0.1188
     26 H         144.0407  139.5077  157.6564 H       1  UNL1        0.1188
     27 C         141.3104  141.7260  170.0758 C.2     1  UNL1        0.0775
     28 O         141.9544  140.7245  170.9881 O.co2   1  UNL1       -0.5444
     29 O         140.8191  143.0329  170.6241 O.co2   1  UNL1       -0.5444
     30 C         144.0408  143.1726  165.6370 C.1     1  UNL1        0.1005
     31 N         145.1545  144.0620  166.1049 N.1     1  UNL1       -0.1908
@<TRIPOS>UNITY_ATOM_ATTR
28 1
charge -1
@<TRIPOS>BOND
     1     2     1    1
     2     2     3    1
     3     3     4    1
     4     4     5    1
     5     5     6   ar
     6     6    16    1
     7    16    17    1
     8    17    18    1
     9    18    19    1
    10    19    21    1
    11    21    22    1
    12    21    23    1
    13    23    24    1
    14    19    20    1
    15     6     7   ar
    16     7     8   ar
    17     8    30    1
    18    30    31    3
    19     8     9   ar
    20     9    10   ar
    21    10    11   ar
    22    11    27    1
    23    27    28   ar
    24    27    29   ar
    25    11    12   ar
    26    12    13    2
    27    12    14   ar
    28    14    15   ar
    29    14     2    1
    30    15     5   ar
    31    20    16    1
    32    15     9   ar
    33    24    21    1
    34    22    25    1
    35    22    26    1
@<TRIPOS>MOLECULE
*****
 31 35 0 0 0
SMALL
GASTEIGER

@<TRIPOS>ATOM
      1 C         144.0049  139.5734  164.5672 C.3     1  UNL1        0.0285
      2 C         143.0555  140.5859  163.9984 C.3     1  UNL1        0.1321
      3 C         142.9916  140.8042  162.5158 C.3     1  UNL1        0.2279
      4 O         142.0423  141.8167  161.9470 O.3     1  UNL1       -0.4707
      5 C         141.1568  142.6109  162.8608 C.ar    1  UNL1        0.1675
      6 C         140.2074  143.6235  162.2920 C.ar    1  UNL1        0.0844
      7 C         139.3220  144.4177  163.2058 C.ar    1  UNL1        0.0280
      8 C         139.3859  144.1994  164.6885 C.ar    1  UNL1        0.0712
      9 C         140.3352  143.1869  165.2573 C.ar    1  UNL1        0.0288
     10 C         140.3991  142.9687  166.7399 C.ar    1  UNL1        0.0081
     11 C         141.3485  141.9561  167.3087 C.ar    1  UNL1        0.0702
     12 C         142.2339  141.1619  166.3949 C.ar    1  UNL1        0.2620
     13 O         143.1833  140.1494  166.9637 O.2     1  UNL1       -0.2669
     14 N         142.1701  141.3802  164.9122 N.ar    1  UNL1       -0.2909
     15 C         141.2207  142.3927  164.3434 C.ar    1  UNL1        0.0985
     16 N         140.1435  143.8417  160.8093 N.pl3   1  UNL1       -0.3050
     17 C         139.4246  142.9727  159.8203 C.3     1  UNL1        0.0910
     18 C         139.6241  143.5612  158.4551 C.3     1  UNL1        0.0244
     19 C         140.4662  144.7940  158.6003 C.3     1  UNL1        0.0344
     20 C         140.7873  144.9674  160.0553 C.3     1  UNL1        0.0921
     21 C         140.9095  145.6952  157.4861 C.3     1  UNL1        0.0406
     22 N         142.2704  146.0788  157.9871 N.3     1  UNL1       -0.3231
     23 C         140.8802  146.4631  156.1980 C.3     1  UNL1        0.0156
     24 C         139.7026  145.6246  156.5982 C.3     1  UNL1        0.0156
     25 H         142.4441  145.6224  158.8827 H       1  UNL1        0.1188
     26 H         142.3159  147.0907  158.1068 H       1  UNL1        0.1188
     27 C         141.4124  141.7379  168.7915 C.2     1  UNL1        0.0775
     28 O         140.6369  140.6176  169.4187 O.co2   1  UNL1       -0.5444
     29 O         142.2517  142.6400  169.6468 O.co2   1  UNL1       -0.5444
     30 C         138.5004  144.9937  165.6023 C.1     1  UNL1        0.1005
     31 N         137.6149  145.7879  166.5162 N.1     1  UNL1       -0.1908
@<TRIPOS>UNITY_ATOM_ATTR
28 1
charge -1
@<TRIPOS>BOND
     1     2     1    1
     2     2     3    1
     3     3     4    1
     4     4     5    1
     5     5     6   ar
     6     6    16    1
     7    16    17    1
     8    17    18    1
     9    18    19    1
    10    19    21    1
    11    21    22    1
    12    21    23    1
    13    23    24    1
    14    19    20    1
    15     6     7   ar
    16     7     8   ar
    17     8    30    1
    18    30    31    3
    19     8     9   ar
    20     9    10   ar
    21    10    11   ar
    22    11    27    1
    23    27    28   ar
    24    27    29   ar
    25    11    12   ar
    26    12    13    2
    27    12    14   ar
    28    14    15   ar
    29    14     2    1
    30    15     5   ar
    31    20    16    1
    32    15     9   ar
    33    24    21    1
    34    22    25    1
    35    22    26    1
@<TRIPOS>MOLECULE
*****
 31 35 0 0 0
SMALL
GASTEIGER

@<TRIPOS>ATOM
      1 C         140.3208  146.0182  162.0202 C.3     1  UNL1        0.0285
      2 C         140.5421  144.7107  162.7213 C.3     1  UNL1        0.1321
      3 C         139.9932  144.4972  164.1008 C.3     1  UNL1        0.2279
      4 O         140.2144  143.1897  164.8020 O.3     1  UNL1       -0.4707
      5 C         140.9846  142.0958  164.1237 C.ar    1  UNL1        0.1675
      6 C         141.2058  140.7884  164.8248 C.ar    1  UNL1        0.0844
      7 C         141.9760  139.6945  164.1465 C.ar    1  UNL1        0.0280
      8 C         142.5249  139.9080  162.7669 C.ar    1  UNL1        0.0712
      9 C         142.3037  141.2154  162.0658 C.ar    1  UNL1        0.0288
     10 C         142.8526  141.4290  160.6863 C.ar    1  UNL1        0.0081
     11 C         142.6314  142.7364  159.9851 C.ar    1  UNL1        0.0702
     12 C         141.8612  143.8303  160.6634 C.ar    1  UNL1        0.2620
     13 O         141.6400  145.1378  159.9623 O.2     1  UNL1       -0.2669
     14 N         141.3122  143.6168  162.0430 N.ar    1  UNL1       -0.2909
     15 C         141.5335  142.3094  162.7442 C.ar    1  UNL1        0.0985
     16 N         140.6569  140.5748  166.2043 N.pl3   1  UNL1       -0.3050
     17 C         139.4020  139.8284  166.5482 C.3     1  UNL1        0.0910
     18 C         139.2359  139.8624  168.0385 C.3     1  UNL1        0.0244
     19 C         140.3882  140.6299  168.6159 C.3     1  UNL1        0.0344
     20 C         141.2664  141.0702  167.4822 C.3     1  UNL1        0.0921
     21 C         140.6214  140.9083  170.0713 C.3     1  UNL1        0.0406
     22 N         140.3796  139.5414  170.6399 N.3     1  UNL1       -0.3231
     23 C         140.9385  141.6612  171.3292 C.3     1  UNL1        0.0156
     24 C         140.9441  142.3718  170.0081 C.3     1  UNL1        0.0156
     25 H         140.1457  138.8959  169.8856 H       1  UNL1        0.1188
     26 H         139.6072  139.5815  171.3048 H       1  UNL1        0.1188
     27 C         143.1803  142.9499  158.6055 C.2     1  UNL1        0.0775
     28 O         144.6630  142.9410  158.3787 O.co2   1  UNL1       -0.5444
     29 O         142.2466  143.1723  157.4529 O.co2   1  UNL1       -0.5444
     30 C         143.2951  138.8141  162.0886 C.1     1  UNL1        0.1005
     31 N         144.0653  137.7200  161.4103 N.1     1  UNL1       -0.1908
@<TRIPOS>UNITY_ATOM_ATTR
28 1
charge -1
@<TRIPOS>BOND
     1     2     1    1
     2     2     3    1
     3     3     4    1
     4     4     5    1
     5     5     6   ar
     6     6    16    1
     7    16    17    1
     8    17    18    1
     9    18    19    1
    10    19    21    1
    11    21    22    1
    12    21    23    1
    13    23    24    1
    14    19    20    1
    15     6     7   ar
    16     7     8   ar
    17     8    30    1
    18    30    31    3
    19     8     9   ar
    20     9    10   ar
    21    10    11   ar
    22    11    27    1
    23    27    28   ar
    24    27    29   ar
    25    11    12   ar
    26    12    13    2
    27    12    14   ar
    28    14    15   ar
    29    14     2    1
    30    15     5   ar
    31    20    16    1
    32    15     9   ar
    33    24    21    1
    34    22    25    1
    35    22    26    1
@<TRIPOS>MOLECULE
*****
 31 35 0 0 0
SMALL
GASTEIGER

@<TRIPOS>ATOM
      1 C         137.8930  138.8881  167.2337 C.3     1  UNL1        0.0285
      2 C         138.7668  139.5957  166.2409 C.3     1  UNL1        0.1321
      3 C         138.4494  139.5233  164.7767 C.3     1  UNL1        0.2279
      4 O         139.3232  140.2309  163.7839 O.3     1  UNL1       -0.4707
      5 C         140.5145  141.0110  164.2553 C.ar    1  UNL1        0.1675
      6 C         141.3883  141.7187  163.2625 C.ar    1  UNL1        0.0844
      7 C         142.5796  142.4988  163.7339 C.ar    1  UNL1        0.0280
      8 C         142.8971  142.5713  165.1981 C.ar    1  UNL1        0.0712
      9 C         142.0233  141.8636  166.1909 C.ar    1  UNL1        0.0288
     10 C         142.3407  141.9361  167.6551 C.ar    1  UNL1        0.0081
     11 C         141.4669  141.2284  168.6479 C.ar    1  UNL1        0.0702
     12 C         140.2756  140.4483  168.1765 C.ar    1  UNL1        0.2620
     13 O         139.4018  139.7407  169.1693 O.2     1  UNL1       -0.2669
     14 N         139.9581  140.3758  166.7123 N.ar    1  UNL1       -0.2909
     15 C         140.8319  141.0835  165.7195 C.ar    1  UNL1        0.0985
     16 N         141.0709  141.6462  161.7983 N.pl3   1  UNL1       -0.3050
     17 C         141.8165  140.8442  160.7730 C.3     1  UNL1        0.0910
     18 C         141.1586  141.0653  159.4433 C.3     1  UNL1        0.0244
     19 C         140.0063  142.0040  159.6466 C.3     1  UNL1        0.0344
     20 C         139.9522  142.3630  161.1021 C.3     1  UNL1        0.0921
     21 C         139.0723  142.4971  158.5815 C.3     1  UNL1        0.0406
     22 N         139.6408  143.8658  158.3498 N.3     1  UNL1       -0.3231
     23 C         137.9409  142.5149  157.5969 C.3     1  UNL1        0.0156
     24 C         138.1795  141.2997  158.4434 C.3     1  UNL1        0.0156
     25 H         140.4420  144.0097  158.9645 H       1  UNL1        0.1188
     26 H         138.9285  144.5681  158.5495 H       1  UNL1        0.1188
     27 C         141.7844  141.3009  170.1122 C.2     1  UNL1        0.0775
     28 O         142.5906  140.2143  170.7595 O.co2   1  UNL1       -0.5444
     29 O         141.2956  142.4601  170.9291 O.co2   1  UNL1       -0.5444
     30 C         144.0884  143.3514  165.6695 C.1     1  UNL1        0.1005
     31 N         145.2797  144.1316  166.1410 N.1     1  UNL1       -0.1908
@<TRIPOS>UNITY_ATOM_ATTR
28 1
charge -1
@<TRIPOS>BOND
     1     2     1    1
     2     2     3    1
     3     3     4    1
     4     4     5    1
     5     5     6   ar
     6     6    16    1
     7    16    17    1
     8    17    18    1
     9    18    19    1
    10    19    21    1
    11    21    22    1
    12    21    23    1
    13    23    24    1
    14    19    20    1
    15     6     7   ar
    16     7     8   ar
    17     8    30    1
    18    30    31    3
    19     8     9   ar
    20     9    10   ar
    21    10    11   ar
    22    11    27    1
    23    27    28   ar
    24    27    29   ar
    25    11    12   ar
    26    12    13    2
    27    12    14   ar
    28    14    15   ar
    29    14     2    1
    30    15     5   ar
    31    20    16    1
    32    15     9   ar
    33    24    21    1
    34    22    25    1
    35    22    26    1
@<TRIPOS>MOLECULE
*****
 31 35 0 0 0
SMALL
GASTEIGER

@<TRIPOS>ATOM
      1 C         143.7024  138.3243  166.5915 C.3     1  UNL1        0.0285
      2 C         142.8774  139.2108  165.7063 C.3     1  UNL1        0.1321
      3 C         142.8240  138.9553  164.2292 C.3     1  UNL1        0.2279
      4 O         141.9990  139.8418  163.3441 O.3     1  UNL1       -0.4707
      5 C         141.2273  140.9837  163.9360 C.ar    1  UNL1        0.1675
      6 C         140.4023  141.8702  163.0509 C.ar    1  UNL1        0.0844
      7 C         139.6307  143.0122  163.6428 C.ar    1  UNL1        0.0280
      8 C         139.6840  143.2677  165.1200 C.ar    1  UNL1        0.0712
      9 C         140.5090  142.3812  166.0052 C.ar    1  UNL1        0.0288
     10 C         140.5624  142.6367  167.4822 C.ar    1  UNL1        0.0081
     11 C         141.3874  141.7502  168.3674 C.ar    1  UNL1        0.0702
     12 C         142.1591  140.6082  167.7754 C.ar    1  UNL1        0.2620
     13 O         142.9841  139.7218  168.6606 O.2     1  UNL1       -0.2669
     14 N         142.1057  140.3527  166.2983 N.ar    1  UNL1       -0.2909
     15 C         141.2807  141.2392  165.4131 C.ar    1  UNL1        0.0985
     16 N         140.3490  141.6148  161.5738 N.pl3   1  UNL1       -0.3050
     17 C         141.5097  141.6776  160.6256 C.3     1  UNL1        0.0910
     18 C         141.0036  141.3533  159.2513 C.3     1  UNL1        0.0244
     19 C         139.5302  141.0900  159.3500 C.3     1  UNL1        0.0344
     20 C         139.1256  141.2516  160.7855 C.3     1  UNL1        0.0921
     21 C         138.6210  140.7286  158.2131 C.3     1  UNL1        0.0406
     22 N         138.9493  139.2719  158.0699 N.3     1  UNL1       -0.3231
     23 C         137.5978  140.8730  157.1258 C.3     1  UNL1        0.0156
     24 C         137.9769  142.0596  157.9614 C.3     1  UNL1        0.0156
     25 H         139.6527  139.0124  158.7615 H       1  UNL1        0.1188
     26 H         139.3123  139.0957  157.1331 H       1  UNL1        0.1188
     27 C         141.4407  142.0057  169.8446 C.2     1  UNL1        0.0775
     28 O         140.8069  141.0355  170.7969 O.co2   1  UNL1       -0.5444
     29 O         142.1279  143.2314  170.3693 O.co2   1  UNL1       -0.5444
     30 C         138.9123  144.4096  165.7120 C.1     1  UNL1        0.1005
     31 N         138.1407  145.5517  166.3039 N.1     1  UNL1       -0.1908
@<TRIPOS>UNITY_ATOM_ATTR
28 1
charge -1
@<TRIPOS>BOND
     1     2     1    1
     2     2     3    1
     3     3     4    1
     4     4     5    1
     5     5     6   ar
     6     6    16    1
     7    16    17    1
     8    17    18    1
     9    18    19    1
    10    19    21    1
    11    21    22    1
    12    21    23    1
    13    23    24    1
    14    19    20    1
    15     6     7   ar
    16     7     8   ar
    17     8    30    1
    18    30    31    3
    19     8     9   ar
    20     9    10   ar
    21    10    11   ar
    22    11    27    1
    23    27    28   ar
    24    27    29   ar
    25    11    12   ar
    26    12    13    2
    27    12    14   ar
    28    14    15   ar
    29    14     2    1
    30    15     5   ar
    31    20    16    1
    32    15     9   ar
    33    24    21    1
    34    22    25    1
    35    22    26    1
@<TRIPOS>MOLECULE
*****
 31 35 0 0 0
SMALL
GASTEIGER

@<TRIPOS>ATOM
      1 C         144.0435  137.9070  161.3757 C.3     1  UNL1        0.0285
      2 C         143.1518  138.7814  162.2065 C.3     1  UNL1        0.1321
      3 C         142.7826  138.3674  163.6001 C.3     1  UNL1        0.2279
      4 O         141.8909  139.2418  164.4310 O.3     1  UNL1       -0.4707
      5 C         141.3685  140.5303  163.8682 C.ar    1  UNL1        0.1675
      6 C         140.4768  141.4047  164.6991 C.ar    1  UNL1        0.0844
      7 C         139.9544  142.6932  164.1363 C.ar    1  UNL1        0.0280
      8 C         140.3235  143.1074  162.7426 C.ar    1  UNL1        0.0712
      9 C         141.2152  142.2329  161.9118 C.ar    1  UNL1        0.0288
     10 C         141.5844  142.6470  160.5182 C.ar    1  UNL1        0.0081
     11 C         142.4761  141.7726  159.6873 C.ar    1  UNL1        0.0702
     12 C         142.9985  140.4841  160.2501 C.ar    1  UNL1        0.2620
     13 O         143.8902  139.6096  159.4192 O.2     1  UNL1       -0.2669
     14 N         142.6293  140.0699  161.6438 N.ar    1  UNL1       -0.2909
     15 C         141.7377  140.9444  162.4746 C.ar    1  UNL1        0.0985
     16 N         140.1076  140.9906  166.0927 N.pl3   1  UNL1       -0.3050
     17 C         139.1844  139.8680  166.4636 C.3     1  UNL1        0.0910
     18 C         139.1030  139.8100  167.9602 C.3     1  UNL1        0.0244
     19 C         139.9759  140.8967  168.5144 C.3     1  UNL1        0.0344
     20 C         140.5968  141.6264  167.3602 C.3     1  UNL1        0.0921
     21 C         140.1903  141.2005  169.9676 C.3     1  UNL1        0.0406
     22 N         139.5248  140.0060  170.5843 N.3     1  UNL1       -0.3231
     23 C         140.6357  141.9190  171.2066 C.3     1  UNL1        0.0156
     24 C         140.9302  142.5004  169.8556 C.3     1  UNL1        0.0156
     25 H         139.1591  139.4024  169.8478 H       1  UNL1        0.1188
     26 H         138.7585  140.3148  171.1825 H       1  UNL1        0.1188
     27 C         142.8452  142.1867  158.2936 C.2     1  UNL1        0.0775
     28 O         143.9354  143.1933  158.0743 O.co2   1  UNL1       -0.5444
     29 O         142.1242  141.5942  157.1193 O.co2   1  UNL1       -0.5444
     30 C         139.8011  144.3959  162.1799 C.1     1  UNL1        0.1005
     31 N         139.2786  145.6844  161.6171 N.1     1  UNL1       -0.1908
@<TRIPOS>UNITY_ATOM_ATTR
28 1
charge -1
@<TRIPOS>BOND
     1     2     1    1
     2     2     3    1
     3     3     4    1
     4     4     5    1
     5     5     6   ar
     6     6    16    1
     7    16    17    1
     8    17    18    1
     9    18    19    1
    10    19    21    1
    11    21    22    1
    12    21    23    1
    13    23    24    1
    14    19    20    1
    15     6     7   ar
    16     7     8   ar
    17     8    30    1
    18    30    31    3
    19     8     9   ar
    20     9    10   ar
    21    10    11   ar
    22    11    27    1
    23    27    28   ar
    24    27    29   ar
    25    11    12   ar
    26    12    13    2
    27    12    14   ar
    28    14    15   ar
    29    14     2    1
    30    15     5   ar
    31    20    16    1
    32    15     9   ar
    33    24    21    1
    34    22    25    1
    35    22    26    1
@<TRIPOS>MOLECULE
*****
 31 35 0 0 0
SMALL
GASTEIGER

@<TRIPOS>ATOM
      1 C         138.3257  144.6105  165.2991 C.3     1  UNL1        0.0285
      2 C         138.6416  143.8138  164.0680 C.3     1  UNL1        0.1321
      3 C         137.8542  144.0331  162.8102 C.3     1  UNL1        0.2279
      4 O         138.1702  143.2364  161.5792 O.3     1  UNL1       -0.4707
      5 C         139.2734  142.2205  161.6059 C.ar    1  UNL1        0.1675
      6 C         139.5893  141.4238  160.3748 C.ar    1  UNL1        0.0844
      7 C         140.6925  140.4079  160.4015 C.ar    1  UNL1        0.0280
      8 C         141.4799  140.1886  161.6594 C.ar    1  UNL1        0.0712
      9 C         141.1640  140.9853  162.8904 C.ar    1  UNL1        0.0288
     10 C         141.9513  140.7661  164.1482 C.ar    1  UNL1        0.0081
     11 C         141.6354  141.5628  165.3792 C.ar    1  UNL1        0.0702
     12 C         140.5322  142.5787  165.3525 C.ar    1  UNL1        0.2620
     13 O         140.2163  143.3753  166.5836 O.2     1  UNL1       -0.2669
     14 N         139.7448  142.7979  164.0947 N.ar    1  UNL1       -0.2909
     15 C         140.0607  142.0012  162.8637 C.ar    1  UNL1        0.0985
     16 N         138.8020  141.6430  159.1171 N.pl3   1  UNL1       -0.3050
     17 C         137.8754  140.6545  158.4733 C.3     1  UNL1        0.0910
     18 C         137.3037  141.2897  157.2405 C.3     1  UNL1        0.0244
     19 C         137.8769  142.6709  157.1224 C.3     1  UNL1        0.0344
     20 C         138.8029  142.8892  158.2822 C.3     1  UNL1        0.0921
     21 C         137.5769  143.6600  156.0354 C.3     1  UNL1        0.0406
     22 N         136.1362  143.3327  155.7758 N.3     1  UNL1       -0.3231
     23 C         137.7771  144.7628  155.0386 C.3     1  UNL1        0.0156
     24 C         138.9133  144.3308  155.9175 C.3     1  UNL1        0.0156
     25 H         135.8421  142.5776  156.3953 H       1  UNL1        0.1188
     26 H         136.0236  143.0397  154.8053 H       1  UNL1        0.1188
     27 C         142.4228  141.3435  166.6370 C.2     1  UNL1        0.0775
     28 O         143.3584  142.4067  167.1311 O.co2   1  UNL1       -0.5444
     29 O         142.2746  140.0610  167.4007 O.co2   1  UNL1       -0.5444
     30 C         142.5832  139.1727  161.6861 C.1     1  UNL1        0.1005
     31 N         143.6865  138.1568  161.7128 N.1     1  UNL1       -0.1908
@<TRIPOS>UNITY_ATOM_ATTR
28 1
charge -1
@<TRIPOS>BOND
     1     2     1    1
     2     2     3    1
     3     3     4    1
     4     4     5    1
     5     5     6   ar
     6     6    16    1
     7    16    17    1
     8    17    18    1
     9    18    19    1
    10    19    21    1
    11    21    22    1
    12    21    23    1
    13    23    24    1
    14    19    20    1
    15     6     7   ar
    16     7     8   ar
    17     8    30    1
    18    30    31    3
    19     8     9   ar
    20     9    10   ar
    21    10    11   ar
    22    11    27    1
    23    27    28   ar
    24    27    29   ar
    25    11    12   ar
    26    12    13    2
    27    12    14   ar
    28    14    15   ar
    29    14     2    1
    30    15     5   ar
    31    20    16    1
    32    15     9   ar
    33    24    21    1
    34    22    25    1
    35    22    26    1
