@<TRIPOS>MOLECULE
*****
 34 38 0 0 0
SMALL
GASTEIGER

@<TRIPOS>ATOM
      1 N         142.7684  138.1464  162.6726 N.3     1  UNL1       -0.2720
      2 C         141.4390  137.5256  162.3604 C.3     1  UNL1        0.0768
      3 C         140.1889  137.5256  163.1896 C.3     1  UNL1        0.0434
      4 C         139.9596  138.1463  164.5356 C.ar    1  UNL1       -0.0231
      5 C         138.5577  137.9122  165.0153 C.ar    1  UNL1       -0.0013
      6 C         138.1198  138.4523  166.3444 C.ar    1  UNL1        0.0388
      7 C         139.0837  139.2264  167.1939 C.ar    1  UNL1        0.1643
      8 O         138.9394  139.8757  168.5384 O.2     1  UNL1       -0.4337
      9 C         140.2520  140.5110  168.8897 C.ar    1  UNL1        0.2679
     10 N         141.2077  140.2544  167.7623 N.ar    1  UNL1       -0.2079
     11 C         140.4856  139.4605  166.7142 C.ar    1  UNL1        0.1145
     12 C         140.9235  138.9204  165.3851 C.ar    1  UNL1       -0.0039
     13 C         142.3549  139.2650  165.0982 C.3     1  UNL1        0.0450
     14 C         143.1759  138.9205  163.8910 C.3     1  UNL1        0.0769
     15 C         140.5558  141.2697  170.1474 C.3     1  UNL1        0.3303
     16 C         140.8594  142.0285  171.4053 C.3     1  UNL1        0.0822
     17 F         139.1350  141.7477  170.2022 F       1  UNL1       -0.1945
     18 F         141.9765  140.7918  170.0927 F       1  UNL1       -0.1945
     19 C         143.8305  137.9697  161.6283 C.3     1  UNL1        0.0730
     20 C         144.0410  139.0278  160.5862 C.3     1  UNL1        0.0294
     21 C         144.3931  140.4266  160.9980 C.3     1  UNL1        0.0666
     22 S         143.7768  141.5952  160.2876 S.3     1  UNL1       -0.0756
     23 C         141.1183  143.6008  162.2815 C.ar    1  UNL1        0.2029
     24 N         142.2210  144.6116  162.1707 N.ar    1  UNL1       -0.1250
     25 N         143.3511  143.9833  161.4103 N.ar    1  UNL1       -0.1220
     26 C         142.9468  142.5842  161.0511 C.ar    1  UNL1        0.1933
     27 N         141.5669  142.3478  161.5895 N.ar    1  UNL1       -0.2860
     28 C         140.7746  141.0808  161.4590 C.3     1  UNL1        0.1341
     29 C         140.4770  143.0261  165.4292 C.3     1  UNL1        0.0556
     30 C         139.5039  143.5426  164.4111 C.ar    1  UNL1        0.1001
     31 N         138.0653  143.8857  164.6612 N.ar    1  UNL1       -0.2085
     32 C         137.4709  144.3618  163.3689 C.ar    1  UNL1        0.2849
     33 O         138.5422  144.3130  162.3201 O.2     1  UNL1       -0.4283
     34 C         139.7987  143.8067  162.9642 C.ar    1  UNL1        0.1964
@<TRIPOS>BOND
     1    29    30    1
     2    30    31   ar
     3    31    32   ar
     4    32    33   ar
     5    33    34   ar
     6    34    23    1
     7    23    24   ar
     8    24    25   ar
     9    25    26   ar
    10    26    22    1
    11    22    21    1
    12    21    20    1
    13    20    19    1
    14    19     1    1
    15     1     2    1
    16     2     3    1
    17     3     4    1
    18     4     5   ar
    19     5     6   ar
    20     6     7   ar
    21     7     8   ar
    22     8     9   ar
    23     9    15    1
    24    15    16    1
    25    15    17    1
    26    15    18    1
    27     9    10   ar
    28    10    11   ar
    29    11    12   ar
    30    12    13    1
    31    13    14    1
    32    26    27   ar
    33    27    28    1
    34    34    30   ar
    35    27    23   ar
    36    14     1    1
    37    12     4   ar
    38    11     7   ar
@<TRIPOS>MOLECULE
*****
 34 38 0 0 0
SMALL
GASTEIGER

@<TRIPOS>ATOM
      1 N         140.6570  138.9479  161.5482 N.3     1  UNL1       -0.2720
      2 C         139.6784  137.8690  161.9066 C.3     1  UNL1        0.0768
      3 C         139.0004  137.6205  163.2214 C.3     1  UNL1        0.0434
      4 C         139.1336  138.3893  164.5023 C.ar    1  UNL1       -0.0231
      5 C         138.2761  137.8035  165.5848 C.ar    1  UNL1       -0.0013
      6 C         138.2627  138.4250  166.9499 C.ar    1  UNL1        0.0388
      7 C         139.1067  139.6324  167.2327 C.ar    1  UNL1        0.1643
      8 O         139.2979  140.4556  168.4719 O.2     1  UNL1       -0.4337
      9 C         140.2735  141.5502  168.1554 C.ar    1  UNL1        0.2679
     10 N         140.6853  141.4035  166.7205 N.ar    1  UNL1       -0.2079
     11 C         139.9642  140.2182  166.1502 C.ar    1  UNL1        0.1145
     12 C         139.9776  139.5967  164.7851 C.ar    1  UNL1       -0.0039
     13 C         140.8969  140.3334  163.8566 C.3     1  UNL1        0.0450
     14 C         141.1993  140.0445  162.4160 C.3     1  UNL1        0.0769
     15 C         140.7530  142.6061  169.1067 C.3     1  UNL1        0.3303
     16 C         141.2326  143.6620  170.0582 C.3     1  UNL1        0.0822
     17 F         139.5076  142.4345  169.9250 F       1  UNL1       -0.1945
     18 F         141.9984  142.7776  168.2885 F       1  UNL1       -0.1945
     19 C         141.1598  138.9272  160.1351 C.3     1  UNL1        0.0730
     20 C         140.6205  139.9042  159.1328 C.3     1  UNL1        0.0294
     21 C         139.2208  139.7521  158.6152 C.3     1  UNL1        0.0666
     22 S         138.1732  140.7626  158.9775 S.3     1  UNL1       -0.0756
     23 C         138.7924  143.3623  161.7924 C.ar    1  UNL1        0.2029
     24 N         139.3504  144.0852  160.6023 N.ar    1  UNL1       -0.1250
     25 N         139.1864  143.1993  159.4031 N.ar    1  UNL1       -0.1220
     26 C         138.5270  141.9290  159.8519 C.ar    1  UNL1        0.1933
     27 N         138.2835  142.0297  161.3285 N.ar    1  UNL1       -0.2860
     28 C         137.6435  140.9818  162.1901 C.3     1  UNL1        0.1341
     29 C         141.3777  144.0022  163.6784 C.3     1  UNL1        0.0556
     30 C         139.9389  144.1751  164.0661 C.ar    1  UNL1        0.1001
     31 N         139.4360  144.6726  165.3888 N.ar    1  UNL1       -0.2085
     32 C         137.9369  144.6859  165.3394 C.ar    1  UNL1        0.2849
     33 O         137.5133  144.1967  163.9862 O.2     1  UNL1       -0.4283
     34 C         138.7506  143.8810  163.1992 C.ar    1  UNL1        0.1964
@<TRIPOS>BOND
     1    29    30    1
     2    30    31   ar
     3    31    32   ar
     4    32    33   ar
     5    33    34   ar
     6    34    23    1
     7    23    24   ar
     8    24    25   ar
     9    25    26   ar
    10    26    22    1
    11    22    21    1
    12    21    20    1
    13    20    19    1
    14    19     1    1
    15     1     2    1
    16     2     3    1
    17     3     4    1
    18     4     5   ar
    19     5     6   ar
    20     6     7   ar
    21     7     8   ar
    22     8     9   ar
    23     9    15    1
    24    15    16    1
    25    15    17    1
    26    15    18    1
    27     9    10   ar
    28    10    11   ar
    29    11    12   ar
    30    12    13    1
    31    13    14    1
    32    26    27   ar
    33    27    28    1
    34    34    30   ar
    35    27    23   ar
    36    14     1    1
    37    12     4   ar
    38    11     7   ar
@<TRIPOS>MOLECULE
*****
 34 38 0 0 0
SMALL
GASTEIGER

@<TRIPOS>ATOM
      1 N         139.1105  138.4557  162.4996 N.3     1  UNL1       -0.2720
      2 C         140.4251  137.7334  162.5099 C.3     1  UNL1        0.0768
      3 C         141.4992  137.7609  163.5567 C.3     1  UNL1        0.0434
      4 C         141.5238  138.5174  164.8516 C.ar    1  UNL1       -0.0231
      5 C         142.7934  138.2649  165.6097 C.ar    1  UNL1       -0.0013
      6 C         143.0196  138.9283  166.9359 C.ar    1  UNL1        0.0388
      7 C         141.9763  139.8443  167.5040 C.ar    1  UNL1        0.1643
      8 O         141.9200  140.6334  168.7783 O.2     1  UNL1       -0.4337
      9 C         140.6157  141.3737  168.8079 C.ar    1  UNL1        0.2679
     10 N         139.8659  141.0420  167.5518 N.ar    1  UNL1       -0.2079
     11 C         140.7068  140.0968  166.7459 C.ar    1  UNL1        0.1145
     12 C         140.4806  139.4334  165.4197 C.ar    1  UNL1       -0.0039
     13 C         139.1550  139.8189  164.8331 C.3     1  UNL1        0.0450
     14 C         138.5453  139.3838  163.5335 C.3     1  UNL1        0.0769
     15 C         140.1439  142.2855  169.9015 C.3     1  UNL1        0.3303
     16 C         139.6721  143.1973  170.9952 C.3     1  UNL1        0.0822
     17 F         138.9699  141.3844  170.1463 F       1  UNL1       -0.1945
     18 F         141.3179  143.1865  169.6567 F       1  UNL1       -0.1945
     19 C         138.2470  138.2185  161.2962 C.3     1  UNL1        0.0730
     20 C         137.5711  139.3734  160.6186 C.3     1  UNL1        0.0294
     21 C         138.2640  140.0985  159.5032 C.3     1  UNL1        0.0666
     22 S         138.6192  141.5477  159.6573 S.3     1  UNL1       -0.0756
     23 C         140.6959  142.5749  162.7714 C.ar    1  UNL1        0.2029
     24 N         139.3340  143.0744  163.1535 N.ar    1  UNL1       -0.1250
     25 N         138.3904  142.7504  162.0335 N.ar    1  UNL1       -0.1220
     26 C         139.1690  142.0506  160.9591 C.ar    1  UNL1        0.1933
     27 N         140.5938  141.9422  161.4152 N.ar    1  UNL1       -0.2860
     28 C         141.7191  141.3118  160.6495 C.3     1  UNL1        0.1341
     29 C         142.0835  145.3516  163.7786 C.3     1  UNL1        0.0556
     30 C         142.5789  143.9646  164.0630 C.ar    1  UNL1        0.1001
     31 N         143.7991  143.6104  164.8602 N.ar    1  UNL1       -0.2085
     32 C         143.9154  142.1152  164.8899 C.ar    1  UNL1        0.2849
     33 O         142.7671  141.5453  164.1111 O.2     1  UNL1       -0.4283
     34 C         141.9411  142.6883  163.6000 C.ar    1  UNL1        0.1964
@<TRIPOS>BOND
     1    29    30    1
     2    30    31   ar
     3    31    32   ar
     4    32    33   ar
     5    33    34   ar
     6    34    23    1
     7    23    24   ar
     8    24    25   ar
     9    25    26   ar
    10    26    22    1
    11    22    21    1
    12    21    20    1
    13    20    19    1
    14    19     1    1
    15     1     2    1
    16     2     3    1
    17     3     4    1
    18     4     5   ar
    19     5     6   ar
    20     6     7   ar
    21     7     8   ar
    22     8     9   ar
    23     9    15    1
    24    15    16    1
    25    15    17    1
    26    15    18    1
    27     9    10   ar
    28    10    11   ar
    29    11    12   ar
    30    12    13    1
    31    13    14    1
    32    26    27   ar
    33    27    28    1
    34    34    30   ar
    35    27    23   ar
    36    14     1    1
    37    12     4   ar
    38    11     7   ar
@<TRIPOS>MOLECULE
*****
 34 38 0 0 0
SMALL
GASTEIGER

@<TRIPOS>ATOM
      1 N         139.3494  144.4816  162.9976 N.3     1  UNL1       -0.2720
      2 C         138.2522  143.5263  162.6318 C.3     1  UNL1        0.0768
      3 C         137.8693  142.2406  163.3030 C.3     1  UNL1        0.0434
      4 C         138.4887  141.5929  164.5057 C.ar    1  UNL1       -0.0231
      5 C         137.7992  140.3063  164.8514 C.ar    1  UNL1       -0.0013
      6 C         138.2651  139.4977  166.0257 C.ar    1  UNL1        0.0388
      7 C         139.4205  139.9754  166.8543 C.ar    1  UNL1        0.1643
      8 O         140.0978  139.3962  168.0609 O.2     1  UNL1       -0.4337
      9 C         141.2059  140.3247  168.4610 C.ar    1  UNL1        0.2679
     10 N         141.2135  141.4778  167.5016 N.ar    1  UNL1       -0.2079
     11 C         140.1101  141.2619  166.5086 C.ar    1  UNL1        0.1145
     12 C         139.6442  142.0706  165.3343 C.ar    1  UNL1       -0.0039
     13 C         140.4656  143.3142  165.1649 C.3     1  UNL1        0.0450
     14 C         140.3343  144.3872  164.1249 C.3     1  UNL1        0.0769
     15 C         142.1420  140.1337  169.6173 C.3     1  UNL1        0.3303
     16 C         143.0780  139.9426  170.7738 C.3     1  UNL1        0.0822
     17 F         141.1602  139.1975  170.2575 F       1  UNL1       -0.1945
     18 F         143.1237  141.0698  168.9772 F       1  UNL1       -0.1945
     19 C         139.4784  145.6912  162.1200 C.3     1  UNL1        0.0730
     20 C         140.1508  145.5801  160.7838 C.3     1  UNL1        0.0294
     21 C         141.5049  144.9438  160.6762 C.3     1  UNL1        0.0666
     22 S         141.6608  143.6257  159.9775 S.3     1  UNL1       -0.0756
     23 C         141.1227  140.4860  162.1953 C.ar    1  UNL1        0.2029
     24 N         139.9994  140.3420  161.2115 N.ar    1  UNL1       -0.1250
     25 N         140.0643  141.5006  160.2611 N.ar    1  UNL1       -0.1220
     26 C         141.2276  142.3607  160.6573 C.ar    1  UNL1        0.1933
     27 N         141.8817  141.7336  161.8527 N.ar    1  UNL1       -0.2860
     28 C         143.0838  142.2615  162.5782 C.3     1  UNL1        0.1341
     29 C         139.6038  137.6650  162.8152 C.3     1  UNL1        0.0556
     30 C         140.7343  138.2506  163.6084 C.ar    1  UNL1        0.1001
     31 N         141.3650  137.6423  164.8257 N.ar    1  UNL1       -0.2085
     32 C         142.4530  138.5630  165.2932 C.ar    1  UNL1        0.2849
     33 O         142.4947  139.7404  164.3647 O.2     1  UNL1       -0.4283
     34 C         141.4324  139.5473  163.3234 C.ar    1  UNL1        0.1964
@<TRIPOS>BOND
     1    29    30    1
     2    30    31   ar
     3    31    32   ar
     4    32    33   ar
     5    33    34   ar
     6    34    23    1
     7    23    24   ar
     8    24    25   ar
     9    25    26   ar
    10    26    22    1
    11    22    21    1
    12    21    20    1
    13    20    19    1
    14    19     1    1
    15     1     2    1
    16     2     3    1
    17     3     4    1
    18     4     5   ar
    19     5     6   ar
    20     6     7   ar
    21     7     8   ar
    22     8     9   ar
    23     9    15    1
    24    15    16    1
    25    15    17    1
    26    15    18    1
    27     9    10   ar
    28    10    11   ar
    29    11    12   ar
    30    12    13    1
    31    13    14    1
    32    26    27   ar
    33    27    28    1
    34    34    30   ar
    35    27    23   ar
    36    14     1    1
    37    12     4   ar
    38    11     7   ar
@<TRIPOS>MOLECULE
*****
 34 38 0 0 0
SMALL
GASTEIGER

@<TRIPOS>ATOM
      1 N         138.8720  142.1337  161.7120 N.3     1  UNL1       -0.2720
      2 C         137.8851  141.0666  162.0831 C.3     1  UNL1        0.0768
      3 C         137.7763  140.2991  163.3673 C.3     1  UNL1        0.0434
      4 C         138.6274  140.4092  164.5975 C.ar    1  UNL1       -0.0231
      5 C         138.1769  139.4540  165.6628 C.ar    1  UNL1       -0.0013
      6 C         138.8966  139.4034  166.9779 C.ar    1  UNL1        0.0388
      7 C         140.0667  140.3080  167.2278 C.ar    1  UNL1        0.1643
      8 O         140.9652  140.4818  168.4163 O.2     1  UNL1       -0.4337
      9 C         141.9709  141.5445  168.0856 C.ar    1  UNL1        0.2679
     10 N         141.6941  142.0275  166.6927 N.ar    1  UNL1       -0.2079
     11 C         140.5172  141.2633  166.1626 C.ar    1  UNL1        0.1145
     12 C         139.7975  141.3139  164.8475 C.ar    1  UNL1       -0.0039
     13 C         140.4055  142.3319  163.9288 C.3     1  UNL1        0.0450
     14 C         139.9935  142.6967  162.5334 C.3     1  UNL1        0.0769
     15 C         143.0620  142.0376  168.9891 C.3     1  UNL1        0.3303
     16 C         144.1532  142.5308  169.8926 C.3     1  UNL1        0.0822
     17 F         143.7386  142.6863  167.8180 F       1  UNL1       -0.1945
     18 F         142.3854  141.3890  170.1602 F       1  UNL1       -0.1945
     19 C         138.7165  142.7143  160.3377 C.3     1  UNL1        0.0730
     20 C         138.4943  141.8097  159.1620 C.3     1  UNL1        0.0294
     21 C         139.6488  141.4192  158.2874 C.3     1  UNL1        0.0666
     22 S         140.2751  140.0641  158.4329 S.3     1  UNL1       -0.0756
     23 C         141.2793  138.9862  162.0239 C.ar    1  UNL1        0.2029
     24 N         140.1261  138.0648  161.7565 N.ar    1  UNL1       -0.1250
     25 N         139.6097  138.3565  160.3787 N.ar    1  UNL1       -0.1220
     26 C         140.4436  139.4581  159.7947 C.ar    1  UNL1        0.1933
     27 N         141.4754  139.8472  160.8114 N.ar    1  UNL1       -0.2860
     28 C         142.5201  140.9107  160.6449 C.3     1  UNL1        0.1341
     29 C         140.8908  137.0724  164.6385 C.3     1  UNL1        0.0556
     30 C         141.9148  138.1577  164.4846 C.ar    1  UNL1        0.1001
     31 N         142.9398  138.5539  165.5054 N.ar    1  UNL1       -0.2085
     32 C         143.7519  139.6785  164.9345 C.ar    1  UNL1        0.2849
     33 O         143.2288  139.9773  163.5608 O.2     1  UNL1       -0.4283
     34 C         142.0933  139.0374  163.2827 C.ar    1  UNL1        0.1964
@<TRIPOS>BOND
     1    29    30    1
     2    30    31   ar
     3    31    32   ar
     4    32    33   ar
     5    33    34   ar
     6    34    23    1
     7    23    24   ar
     8    24    25   ar
     9    25    26   ar
    10    26    22    1
    11    22    21    1
    12    21    20    1
    13    20    19    1
    14    19     1    1
    15     1     2    1
    16     2     3    1
    17     3     4    1
    18     4     5   ar
    19     5     6   ar
    20     6     7   ar
    21     7     8   ar
    22     8     9   ar
    23     9    15    1
    24    15    16    1
    25    15    17    1
    26    15    18    1
    27     9    10   ar
    28    10    11   ar
    29    11    12   ar
    30    12    13    1
    31    13    14    1
    32    26    27   ar
    33    27    28    1
    34    34    30   ar
    35    27    23   ar
    36    14     1    1
    37    12     4   ar
    38    11     7   ar
@<TRIPOS>MOLECULE
*****
 34 38 0 0 0
SMALL
GASTEIGER

@<TRIPOS>ATOM
      1 N         141.5146  144.2718  161.5391 N.3     1  UNL1       -0.2720
      2 C         142.7434  144.5641  162.3483 C.3     1  UNL1        0.0768
      3 C         143.1442  143.9973  163.6780 C.3     1  UNL1        0.0434
      4 C         142.4154  142.9983  164.5269 C.ar    1  UNL1       -0.0231
      5 C         143.1675  142.7001  165.7900 C.ar    1  UNL1       -0.0013
      6 C         142.6098  141.7229  166.7820 C.ar    1  UNL1        0.0388
      7 C         141.3000  141.0438  166.5110 C.ar    1  UNL1        0.1643
      8 O         140.5071  140.0423  167.2971 O.2     1  UNL1       -0.4337
      9 C         139.2649  139.7215  166.5199 C.ar    1  UNL1        0.2679
     10 N         139.2901  140.5248  165.2533 N.ar    1  UNL1       -0.2079
     11 C         140.5480  141.3421  165.2478 C.ar    1  UNL1        0.1145
     12 C         141.1056  142.3192  164.2558 C.ar    1  UNL1       -0.0039
     13 C         140.2013  142.4716  163.0688 C.3     1  UNL1        0.0450
     14 C         140.3833  143.3406  161.8598 C.3     1  UNL1        0.0769
     15 C         138.1867  138.7653  166.9361 C.3     1  UNL1        0.3303
     16 C         137.1085  137.8091  167.3524 C.3     1  UNL1        0.0822
     17 F         138.2340  139.3186  168.3296 F       1  UNL1       -0.1945
     18 F         138.1394  138.2121  165.5427 F       1  UNL1       -0.1945
     19 C         141.4024  145.0081  160.2371 C.3     1  UNL1        0.0730
     20 C         141.3466  144.2457  158.9466 C.3     1  UNL1        0.0294
     21 C         142.5827  144.0955  158.1101 C.3     1  UNL1        0.0666
     22 S         143.3912  142.8344  158.1864 S.3     1  UNL1       -0.0756
     23 C         143.4960  140.8303  161.5089 C.ar    1  UNL1        0.2029
     24 N         144.7446  141.6534  161.6272 N.ar    1  UNL1       -0.1250
     25 N         144.8572  142.5042  160.3971 N.ar    1  UNL1       -0.1220
     26 C         143.6784  142.2071  159.5184 C.ar    1  UNL1        0.1933
     27 N         142.8372  141.1726  160.2055 N.ar    1  UNL1       -0.2860
     28 C         141.5610  140.5837  159.6813 C.3     1  UNL1        0.1341
     29 C         145.0518  139.9002  164.2226 C.3     1  UNL1        0.0556
     30 C         143.7096  139.4116  163.7642 C.ar    1  UNL1        0.1001
     31 N         142.8470  138.4097  164.4727 N.ar    1  UNL1       -0.2085
     32 C         141.5988  138.2181  163.6632 C.ar    1  UNL1        0.2849
     33 O         141.6900  139.1015  162.4544 O.2     1  UNL1       -0.4283
     34 C         142.9946  139.8392  162.5168 C.ar    1  UNL1        0.1964
@<TRIPOS>BOND
     1    29    30    1
     2    30    31   ar
     3    31    32   ar
     4    32    33   ar
     5    33    34   ar
     6    34    23    1
     7    23    24   ar
     8    24    25   ar
     9    25    26   ar
    10    26    22    1
    11    22    21    1
    12    21    20    1
    13    20    19    1
    14    19     1    1
    15     1     2    1
    16     2     3    1
    17     3     4    1
    18     4     5   ar
    19     5     6   ar
    20     6     7   ar
    21     7     8   ar
    22     8     9   ar
    23     9    15    1
    24    15    16    1
    25    15    17    1
    26    15    18    1
    27     9    10   ar
    28    10    11   ar
    29    11    12   ar
    30    12    13    1
    31    13    14    1
    32    26    27   ar
    33    27    28    1
    34    34    30   ar
    35    27    23   ar
    36    14     1    1
    37    12     4   ar
    38    11     7   ar
@<TRIPOS>MOLECULE
*****
 34 38 0 0 0
SMALL
GASTEIGER

@<TRIPOS>ATOM
      1 N         139.8551  144.4374  159.3802 N.3     1  UNL1       -0.2720
      2 C         140.0363  145.5983  160.3129 C.3     1  UNL1        0.0768
      3 C         139.9879  145.6097  161.8121 C.3     1  UNL1        0.0434
      4 C         139.7465  144.4634  162.7488 C.ar    1  UNL1       -0.0231
      5 C         139.7800  144.9093  164.1806 C.ar    1  UNL1       -0.0013
      6 C         139.5607  143.9142  165.2814 C.ar    1  UNL1        0.0388
      7 C         139.3080  142.4732  164.9504 C.ar    1  UNL1        0.1643
      8 O         139.0592  141.2733  165.8155 O.2     1  UNL1       -0.4337
      9 C         138.8719  140.0858  164.9184 C.ar    1  UNL1        0.2679
     10 N         139.0050  140.5518  163.4988 N.ar    1  UNL1       -0.2079
     11 C         139.2745  142.0273  163.5186 C.ar    1  UNL1        0.1145
     12 C         139.4938  143.0224  162.4178 C.ar    1  UNL1       -0.0039
     13 C         139.4201  142.3718  161.0682 C.3     1  UNL1        0.0450
     14 C         139.5809  143.0016  159.7164 C.3     1  UNL1        0.0769
     15 C         138.5994  138.6793  165.3627 C.3     1  UNL1        0.3303
     16 C         138.3268  137.2728  165.8072 C.3     1  UNL1        0.0822
     17 F         137.5681  139.1841  166.3280 F       1  UNL1       -0.1945
     18 F         139.6307  138.1746  164.3975 F       1  UNL1       -0.1945
     19 C         139.9624  144.7546  157.9180 C.3     1  UNL1        0.0730
     20 C         141.1906  144.3594  157.1530 C.3     1  UNL1        0.0294
     21 C         142.5390  144.4406  157.8053 C.3     1  UNL1        0.0666
     22 S         143.1902  143.1990  158.3385 S.3     1  UNL1       -0.0756
     23 C         143.2915  141.7795  161.9497 C.ar    1  UNL1        0.2029
     24 N         143.1024  143.2431  162.2187 N.ar    1  UNL1       -0.1250
     25 N         143.0415  143.9529  160.8987 N.ar    1  UNL1       -0.1220
     26 C         143.1929  142.9281  159.8139 C.ar    1  UNL1        0.1933
     27 N         143.3474  141.5850  160.4634 N.ar    1  UNL1       -0.2860
     28 C         143.5264  140.2767  159.7516 C.3     1  UNL1        0.1341
     29 C         145.8151  141.3125  163.9654 C.3     1  UNL1        0.0556
     30 C         144.5648  140.4855  163.9116 C.ar    1  UNL1        0.1001
     31 N         144.2550  139.2987  164.7750 N.ar    1  UNL1       -0.2085
     32 C         142.9035  138.7799  164.3820 C.ar    1  UNL1        0.2849
     33 O         142.3781  139.6460  163.2758 O.2     1  UNL1       -0.4283
     34 C         143.4048  140.7002  162.9851 C.ar    1  UNL1        0.1964
@<TRIPOS>BOND
     1    29    30    1
     2    30    31   ar
     3    31    32   ar
     4    32    33   ar
     5    33    34   ar
     6    34    23    1
     7    23    24   ar
     8    24    25   ar
     9    25    26   ar
    10    26    22    1
    11    22    21    1
    12    21    20    1
    13    20    19    1
    14    19     1    1
    15     1     2    1
    16     2     3    1
    17     3     4    1
    18     4     5   ar
    19     5     6   ar
    20     6     7   ar
    21     7     8   ar
    22     8     9   ar
    23     9    15    1
    24    15    16    1
    25    15    17    1
    26    15    18    1
    27     9    10   ar
    28    10    11   ar
    29    11    12   ar
    30    12    13    1
    31    13    14    1
    32    26    27   ar
    33    27    28    1
    34    34    30   ar
    35    27    23   ar
    36    14     1    1
    37    12     4   ar
    38    11     7   ar
@<TRIPOS>MOLECULE
*****
 34 38 0 0 0
SMALL
GASTEIGER

@<TRIPOS>ATOM
      1 N         138.7620  142.2147  161.9894 N.3     1  UNL1       -0.2720
      2 C         137.9475  140.9806  162.2418 C.3     1  UNL1        0.0768
      3 C         137.8480  140.1663  163.4977 C.3     1  UNL1        0.0434
      4 C         138.5384  140.3851  164.8112 C.ar    1  UNL1       -0.0231
      5 C         138.1597  139.3331  165.8112 C.ar    1  UNL1       -0.0013
      6 C         138.7414  139.3681  167.1934 C.ar    1  UNL1        0.0388
      7 C         139.7019  140.4551  167.5756 C.ar    1  UNL1        0.1643
      8 O         140.4317  140.7461  168.8534 O.2     1  UNL1       -0.4337
      9 C         141.2614  141.9779  168.6431 C.ar    1  UNL1        0.2679
     10 N         141.0445  142.4482  167.2353 N.ar    1  UNL1       -0.2079
     11 C         140.0806  141.5070  166.5755 C.ar    1  UNL1        0.1145
     12 C         139.4989  141.4720  165.1934 C.ar    1  UNL1       -0.0039
     13 C         140.0061  142.6087  164.3564 C.3     1  UNL1        0.0450
     14 C         139.6781  142.9392  162.9305 C.3     1  UNL1        0.0769
     15 C         142.1518  142.6257  169.6617 C.3     1  UNL1        0.3303
     16 C         143.0422  143.2736  170.6803 C.3     1  UNL1        0.0822
     17 F         141.2269  143.8052  169.7200 F       1  UNL1       -0.1945
     18 F         143.0766  141.4462  169.6034 F       1  UNL1       -0.1945
     19 C         138.6448  142.8018  160.6141 C.3     1  UNL1        0.0730
     20 C         139.4659  143.9991  160.2371 C.3     1  UNL1        0.0294
     21 C         140.3516  143.9504  159.0274 C.3     1  UNL1        0.0666
     22 S         141.8393  143.8503  159.1908 S.3     1  UNL1       -0.0756
     23 C         143.1603  142.1046  162.3959 C.ar    1  UNL1        0.2029
     24 N         143.4829  143.5390  162.6932 N.ar    1  UNL1       -0.1250
     25 N         143.0274  144.3675  161.5287 N.ar    1  UNL1       -0.1220
     26 C         142.4232  143.4451  160.5118 C.ar    1  UNL1        0.1933
     27 N         142.5053  142.0466  161.0478 N.ar    1  UNL1       -0.2860
     28 C         142.0180  140.8076  160.3568 C.3     1  UNL1        0.1341
     29 C         146.0101  141.4372  163.8390 C.3     1  UNL1        0.0556
     30 C         144.7529  140.6269  163.9532 C.ar    1  UNL1        0.1001
     31 N         144.5849  139.3678  164.7508 N.ar    1  UNL1       -0.2085
     32 C         143.1711  138.8963  164.5804 C.ar    1  UNL1        0.2849
     33 O         142.4654  139.8641  163.6775 O.2     1  UNL1       -0.4283
     34 C         143.4429  140.9338  163.2899 C.ar    1  UNL1        0.1964
@<TRIPOS>BOND
     1    29    30    1
     2    30    31   ar
     3    31    32   ar
     4    32    33   ar
     5    33    34   ar
     6    34    23    1
     7    23    24   ar
     8    24    25   ar
     9    25    26   ar
    10    26    22    1
    11    22    21    1
    12    21    20    1
    13    20    19    1
    14    19     1    1
    15     1     2    1
    16     2     3    1
    17     3     4    1
    18     4     5   ar
    19     5     6   ar
    20     6     7   ar
    21     7     8   ar
    22     8     9   ar
    23     9    15    1
    24    15    16    1
    25    15    17    1
    26    15    18    1
    27     9    10   ar
    28    10    11   ar
    29    11    12   ar
    30    12    13    1
    31    13    14    1
    32    26    27   ar
    33    27    28    1
    34    34    30   ar
    35    27    23   ar
    36    14     1    1
    37    12     4   ar
    38    11     7   ar
@<TRIPOS>MOLECULE
*****
 34 38 0 0 0
SMALL
GASTEIGER

@<TRIPOS>ATOM
      1 N         144.1428  142.0548  162.0555 N.3     1  UNL1       -0.2720
      2 C         144.6786  140.6598  162.1870 C.3     1  UNL1        0.0768
      3 C         144.5409  139.7098  163.3397 C.3     1  UNL1        0.0434
      4 C         143.8334  139.9201  164.6454 C.ar    1  UNL1       -0.0231
      5 C         143.9362  138.7097  165.5255 C.ar    1  UNL1       -0.0013
      6 C         143.2944  138.7115  166.8813 C.ar    1  UNL1        0.0388
      7 C         142.5498  139.9237  167.3570 C.ar    1  UNL1        0.1643
      8 O         141.8203  140.2162  168.6346 O.2     1  UNL1       -0.4337
      9 C         141.2666  141.6074  168.5441 C.ar    1  UNL1        0.2679
     10 N         141.6539  142.1747  167.2106 N.ar    1  UNL1       -0.2079
     11 C         142.4470  141.1340  166.4769 C.ar    1  UNL1        0.1145
     12 C         143.0888  141.1322  165.1212 C.ar    1  UNL1       -0.0039
     13 C         142.8678  142.4335  164.4085 C.3     1  UNL1        0.0450
     14 C         143.3369  142.8440  163.0442 C.3     1  UNL1        0.0769
     15 C         140.4662  142.3083  169.6015 C.3     1  UNL1        0.3303
     16 C         139.6658  143.0091  170.6590 C.3     1  UNL1        0.0822
     17 F         140.6168  141.1193  170.5036 F       1  UNL1       -0.1945
     18 F         140.3156  143.4972  168.6994 F       1  UNL1       -0.1945
     19 C         144.4540  142.7524  160.7646 C.3     1  UNL1        0.0730
     20 C         143.3774  142.9463  159.7383 C.3     1  UNL1        0.0294
     21 C         143.0630  141.8492  158.7648 C.3     1  UNL1        0.0666
     22 S         141.7923  141.0645  158.9039 S.3     1  UNL1       -0.0756
     23 C         140.7778  139.5970  162.3511 C.ar    1  UNL1        0.2029
     24 N         141.5269  138.4428  161.7538 N.ar    1  UNL1       -0.1250
     25 N         141.9980  138.8520  160.3898 N.ar    1  UNL1       -0.1220
     26 C         141.5402  140.2592  160.1441 C.ar    1  UNL1        0.1933
     27 N         140.7861  140.7195  161.3562 N.ar    1  UNL1       -0.2860
     28 C         140.1515  142.0661  161.5411 C.3     1  UNL1        0.1341
     29 C         140.8211  137.1806  164.5440 C.3     1  UNL1        0.0556
     30 C         140.1535  138.5132  164.7134 C.ar    1  UNL1        0.1001
     31 N         139.3886  138.9690  165.9205 N.ar    1  UNL1       -0.2085
     32 C         138.8960  140.3614  165.6586 C.ar    1  UNL1        0.2849
     33 O         139.3564  140.7661  164.2896 O.2     1  UNL1       -0.4283
     34 C         140.1336  139.6239  163.7054 C.ar    1  UNL1        0.1964
@<TRIPOS>BOND
     1    29    30    1
     2    30    31   ar
     3    31    32   ar
     4    32    33   ar
     5    33    34   ar
     6    34    23    1
     7    23    24   ar
     8    24    25   ar
     9    25    26   ar
    10    26    22    1
    11    22    21    1
    12    21    20    1
    13    20    19    1
    14    19     1    1
    15     1     2    1
    16     2     3    1
    17     3     4    1
    18     4     5   ar
    19     5     6   ar
    20     6     7   ar
    21     7     8   ar
    22     8     9   ar
    23     9    15    1
    24    15    16    1
    25    15    17    1
    26    15    18    1
    27     9    10   ar
    28    10    11   ar
    29    11    12   ar
    30    12    13    1
    31    13    14    1
    32    26    27   ar
    33    27    28    1
    34    34    30   ar
    35    27    23   ar
    36    14     1    1
    37    12     4   ar
    38    11     7   ar
