@<TRIPOS>MOLECULE
*****
 27 30 0 0 0
SMALL
GASTEIGER

@<TRIPOS>ATOM
      1 C         138.5385  139.0597  163.0484 C.ar    1  UNL1        0.0729
      2 C         138.8510  137.8058  163.8101 C.ar    1  UNL1        0.0109
      3 C         138.8988  137.8312  165.3092 C.ar    1  UNL1        0.0583
      4 C         138.6342  139.1103  166.0465 C.ar    1  UNL1        0.2297
      5 N         138.3217  140.3642  165.2848 N.ar    1  UNL1       -0.2097
      6 C         138.2739  140.3389  163.7858 C.ar    1  UNL1        0.1065
      7 O         137.2130  139.3596  160.8342 O.2     1  UNL1       -0.2699
      8 C         138.4907  139.0344  161.5494 C.2     1  UNL1        0.2506
      9 N         139.7206  138.6839  160.7656 N.am    1  UNL1       -0.2746
     10 C         140.9438  138.3757  161.5774 C.3     1  UNL1        0.0952
     11 C         142.3133  137.9955  161.0976 C.3     1  UNL1        0.0388
     12 C         142.7977  137.8294  159.6879 C.3     1  UNL1        0.0739
     13 N         142.0324  138.0025  158.4094 N.3     1  UNL1       -0.2725
     14 C         140.5936  138.3846  158.2251 C.3     1  UNL1        0.0938
     15 C         139.5648  138.6878  159.2738 C.3     1  UNL1        0.1110
     16 C         142.8085  137.7619  157.1486 C.3     1  UNL1        0.0576
     17 C         143.3487  136.5489  156.4508 C.3     1  UNL1        0.0160
     18 C         143.9061  137.4215  155.3655 C.3     1  UNL1        0.0028
     19 C         143.3659  138.6345  156.0632 C.3     1  UNL1        0.0160
     20 O         138.6820  139.1356  167.5455 O.3     1  UNL1       -0.4361
     21 C         139.6000  140.0896  168.2506 C.ar    1  UNL1        0.1472
     22 C         139.2258  140.6334  169.5976 C.ar    1  UNL1        0.0384
     23 C         140.1438  141.5874  170.3026 C.ar    1  UNL1        0.0145
     24 C         141.4360  141.9976  169.6609 C.ar    1  UNL1        0.0579
     25 CL        142.3540  142.9515  170.3660 Cl      1  UNL1       -0.0822
     26 C         141.8102  141.4537  168.3139 C.ar    1  UNL1        0.0145
     27 C         140.8922  140.4997  167.6088 C.ar    1  UNL1        0.0384
@<TRIPOS>BOND
     1     7     8    2
     2     8     1    1
     3     1     2   ar
     4     2     3   ar
     5     3     4   ar
     6     4    20    1
     7    20    21    1
     8    21    22   ar
     9    22    23   ar
    10    23    24   ar
    11    24    25    1
    12    24    26   ar
    13    26    27   ar
    14     4     5   ar
    15     5     6   ar
    16     8     9   am
    17     9    10    1
    18    10    11    1
    19    11    12    1
    20    12    13    1
    21    13    16    1
    22    16    17    1
    23    17    18    1
    24    18    19    1
    25    13    14    1
    26    14    15    1
    27     6     1   ar
    28    15     9    1
    29    27    21   ar
    30    19    16    1
@<TRIPOS>MOLECULE
*****
 27 30 0 0 0
SMALL
GASTEIGER

@<TRIPOS>ATOM
      1 C         142.0987  138.1560  162.5693 C.ar    1  UNL1        0.0729
      2 C         143.5145  138.0288  162.0906 C.ar    1  UNL1        0.0109
      3 C         143.8168  138.0769  160.6221 C.ar    1  UNL1        0.0583
      4 C         142.7034  138.2522  159.6325 C.ar    1  UNL1        0.2297
      5 N         141.2875  138.3794  160.1112 N.ar    1  UNL1       -0.2097
      6 C         140.9852  138.3313  161.5796 C.ar    1  UNL1        0.1065
      7 O         141.1241  136.9029  164.6260 O.2     1  UNL1       -0.2699
      8 C         141.7963  138.1079  164.0377 C.2     1  UNL1        0.2506
      9 N         142.1662  139.2648  164.9179 N.am    1  UNL1       -0.2746
     10 C         142.8337  140.4187  164.2299 C.3     1  UNL1        0.0952
     11 C         143.3195  141.7076  164.8238 C.3     1  UNL1        0.0388
     12 C         143.2578  142.1610  166.2522 C.3     1  UNL1        0.0739
     13 N         142.6951  141.4376  167.4397 N.3     1  UNL1       -0.2725
     14 C         142.0551  140.0820  167.4919 C.3     1  UNL1        0.0938
     15 C         141.8197  139.1151  166.3696 C.3     1  UNL1        0.1110
     16 C         142.7843  142.1661  168.7478 C.3     1  UNL1        0.0576
     17 C         141.8223  142.9434  169.5968 C.3     1  UNL1        0.0160
     18 C         142.9102  143.1963  170.5980 C.3     1  UNL1        0.0028
     19 C         143.8722  142.4190  169.7491 C.3     1  UNL1        0.0160
     20 O         143.0057  138.3003  158.1640 O.3     1  UNL1       -0.4361
     21 C         142.5599  137.1818  157.2694 C.ar    1  UNL1        0.1472
     22 C         141.4017  137.3829  156.3377 C.ar    1  UNL1        0.0384
     23 C         140.9560  136.2644  155.4432 C.ar    1  UNL1        0.0145
     24 C         141.6683  134.9449  155.4803 C.ar    1  UNL1        0.0579
     25 CL        141.2225  133.8265  154.5857 Cl      1  UNL1       -0.0822
     26 C         142.8266  134.7439  156.4120 C.ar    1  UNL1        0.0145
     27 C         143.2724  135.8624  157.3066 C.ar    1  UNL1        0.0384
@<TRIPOS>BOND
     1     7     8    2
     2     8     1    1
     3     1     2   ar
     4     2     3   ar
     5     3     4   ar
     6     4    20    1
     7    20    21    1
     8    21    22   ar
     9    22    23   ar
    10    23    24   ar
    11    24    25    1
    12    24    26   ar
    13    26    27   ar
    14     4     5   ar
    15     5     6   ar
    16     8     9   am
    17     9    10    1
    18    10    11    1
    19    11    12    1
    20    12    13    1
    21    13    16    1
    22    16    17    1
    23    17    18    1
    24    18    19    1
    25    13    14    1
    26    14    15    1
    27     6     1   ar
    28    15     9    1
    29    27    21   ar
    30    19    16    1
@<TRIPOS>MOLECULE
*****
 27 30 0 0 0
SMALL
GASTEIGER

@<TRIPOS>ATOM
      1 C         138.5623  140.4712  161.5866 C.ar    1  UNL1        0.0729
      2 C         137.6473  140.9783  162.6616 C.ar    1  UNL1        0.0109
      3 C         137.9050  140.6216  164.0956 C.ar    1  UNL1        0.0583
      4 C         139.0776  139.7580  164.4547 C.ar    1  UNL1        0.2297
      5 N         139.9926  139.2509  163.3797 N.ar    1  UNL1       -0.2097
      6 C         139.7350  139.6074  161.9457 C.ar    1  UNL1        0.1065
      7 O         137.4986  139.9079  159.2842 O.2     1  UNL1       -0.2699
      8 C         138.3047  140.8278  160.1526 C.2     1  UNL1        0.2506
      9 N         138.8531  142.1042  159.5869 N.am    1  UNL1       -0.2746
     10 C         139.6444  142.9510  160.5393 C.3     1  UNL1        0.0952
     11 C         140.3158  144.2678  160.2836 C.3     1  UNL1        0.0388
     12 C         140.3617  145.0629  159.0127 C.3     1  UNL1        0.0739
     13 N         139.7476  144.7378  157.6833 N.3     1  UNL1       -0.2725
     14 C         138.9359  143.5371  157.2967 C.3     1  UNL1        0.0938
     15 C         138.5378  142.3651  158.1439 C.3     1  UNL1        0.1110
     16 C         139.9753  145.7467  156.5970 C.3     1  UNL1        0.0576
     17 C         139.2333  146.9494  156.0938 C.3     1  UNL1        0.0160
     18 C         140.2973  147.1736  155.0606 C.3     1  UNL1        0.0028
     19 C         141.0394  145.9710  155.5637 C.3     1  UNL1        0.0160
     20 O         139.3353  139.4014  165.8888 O.3     1  UNL1       -0.4361
     21 C         139.6976  140.4724  166.8745 C.ar    1  UNL1        0.1472
     22 C         139.5535  140.2174  168.3456 C.ar    1  UNL1        0.0384
     23 C         139.9159  141.2885  169.3313 C.ar    1  UNL1        0.0145
     24 C         140.4223  142.6143  168.8459 C.ar    1  UNL1        0.0579
     25 CL        140.7846  143.6853  169.8317 Cl      1  UNL1       -0.0822
     26 C         140.5663  142.8691  167.3747 C.ar    1  UNL1        0.0145
     27 C         140.2040  141.7982  166.3890 C.ar    1  UNL1        0.0384
@<TRIPOS>BOND
     1     7     8    2
     2     8     1    1
     3     1     2   ar
     4     2     3   ar
     5     3     4   ar
     6     4    20    1
     7    20    21    1
     8    21    22   ar
     9    22    23   ar
    10    23    24   ar
    11    24    25    1
    12    24    26   ar
    13    26    27   ar
    14     4     5   ar
    15     5     6   ar
    16     8     9   am
    17     9    10    1
    18    10    11    1
    19    11    12    1
    20    12    13    1
    21    13    16    1
    22    16    17    1
    23    17    18    1
    24    18    19    1
    25    13    14    1
    26    14    15    1
    27     6     1   ar
    28    15     9    1
    29    27    21   ar
    30    19    16    1
@<TRIPOS>MOLECULE
*****
 27 30 0 0 0
SMALL
GASTEIGER

@<TRIPOS>ATOM
      1 C         138.5549  139.8721  159.1655 C.ar    1  UNL1        0.0729
      2 C         137.5674  139.9312  160.2930 C.ar    1  UNL1        0.0109
      3 C         137.8547  139.2159  161.5798 C.ar    1  UNL1        0.0583
      4 C         139.1295  138.4416  161.7391 C.ar    1  UNL1        0.2297
      5 N         140.1170  138.3825  160.6116 N.ar    1  UNL1       -0.2097
      6 C         139.8298  139.0978  159.3248 C.ar    1  UNL1        0.1065
      7 O         137.5214  139.8874  156.7819 O.2     1  UNL1       -0.2699
      8 C         138.2677  140.5874  157.8787 C.2     1  UNL1        0.2506
      9 N         138.7267  142.0027  157.6887 N.am    1  UNL1       -0.2746
     10 C         139.4635  142.6089  158.8462 C.3     1  UNL1        0.0952
     11 C         140.0439  143.9868  158.9672 C.3     1  UNL1        0.0388
     12 C         140.0308  145.0988  157.9607 C.3     1  UNL1        0.0739
     13 N         139.4341  145.1076  156.5845 N.3     1  UNL1       -0.2725
     14 C         138.7031  144.0066  155.8750 C.3     1  UNL1        0.0938
     15 C         138.3884  142.6248  156.3665 C.3     1  UNL1        0.1110
     16 C         139.5888  146.3866  155.8162 C.3     1  UNL1        0.0576
     17 C         139.0319  147.7737  155.9423 C.3     1  UNL1        0.0160
     18 C         139.8076  148.1954  154.7297 C.3     1  UNL1        0.0028
     19 C         140.3645  146.8084  154.6036 C.3     1  UNL1        0.0160
     20 O         139.4167  137.7262  163.0259 O.3     1  UNL1       -0.4361
     21 C         139.4985  138.4968  164.3103 C.ar    1  UNL1        0.1472
     22 C         140.5873  139.5093  164.5093 C.ar    1  UNL1        0.0384
     23 C         140.6690  140.2798  165.7937 C.ar    1  UNL1        0.0145
     24 C         139.6621  140.0379  166.8789 C.ar    1  UNL1        0.0579
     25 CL        139.7439  140.8085  168.1633 Cl      1  UNL1       -0.0822
     26 C         138.5735  139.0254  166.6797 C.ar    1  UNL1        0.0145
     27 C         138.4916  138.2549  165.3954 C.ar    1  UNL1        0.0384
@<TRIPOS>BOND
     1     7     8    2
     2     8     1    1
     3     1     2   ar
     4     2     3   ar
     5     3     4   ar
     6     4    20    1
     7    20    21    1
     8    21    22   ar
     9    22    23   ar
    10    23    24   ar
    11    24    25    1
    12    24    26   ar
    13    26    27   ar
    14     4     5   ar
    15     5     6   ar
    16     8     9   am
    17     9    10    1
    18    10    11    1
    19    11    12    1
    20    12    13    1
    21    13    16    1
    22    16    17    1
    23    17    18    1
    24    18    19    1
    25    13    14    1
    26    14    15    1
    27     6     1   ar
    28    15     9    1
    29    27    21   ar
    30    19    16    1
@<TRIPOS>MOLECULE
*****
 27 30 0 0 0
SMALL
GASTEIGER

@<TRIPOS>ATOM
      1 C         141.2185  139.1316  158.6613 C.ar    1  UNL1        0.0729
      2 C         140.4495  138.1423  157.8368 C.ar    1  UNL1        0.0109
      3 C         141.1652  137.2808  156.8388 C.ar    1  UNL1        0.0583
      4 C         142.6495  137.4087  156.6655 C.ar    1  UNL1        0.2297
      5 N         143.4185  138.3980  157.4900 N.ar    1  UNL1       -0.2097
      6 C         142.7030  139.2595  158.4879 C.ar    1  UNL1        0.1065
      7 O         139.9317  141.3141  159.2366 O.2     1  UNL1       -0.2699
      8 C         140.5030  139.9931  159.6592 C.2     1  UNL1        0.2506
      9 N         140.3588  139.5337  161.0798 N.am    1  UNL1       -0.2746
     10 C         140.9656  138.1990  161.3969 C.3     1  UNL1        0.0952
     11 C         140.9903  137.4706  162.7080 C.3     1  UNL1        0.0388
     12 C         140.4144  137.8970  164.0257 C.3     1  UNL1        0.0739
     13 N         139.6715  139.1570  164.3579 N.3     1  UNL1       -0.2725
     14 C         139.3210  140.3019  163.4544 C.3     1  UNL1        0.0938
     15 C         139.6269  140.4695  161.9955 C.3     1  UNL1        0.1110
     16 C         139.2193  139.2897  165.7819 C.3     1  UNL1        0.0576
     17 C         139.7509  139.9785  167.0039 C.3     1  UNL1        0.0160
     18 C         138.5797  139.4774  167.7958 C.3     1  UNL1        0.0028
     19 C         138.0480  138.7887  166.5740 C.3     1  UNL1        0.0160
     20 O         143.3651  136.5471  155.6675 O.3     1  UNL1       -0.4361
     21 C         143.1062  135.0701  155.6296 C.ar    1  UNL1        0.1472
     22 C         142.6514  134.4209  154.3562 C.ar    1  UNL1        0.0384
     23 C         142.3926  132.9439  154.3184 C.ar    1  UNL1        0.0145
     24 C         142.5884  132.1161  155.5538 C.ar    1  UNL1        0.0579
     25 CL        142.3295  130.6392  155.5159 Cl      1  UNL1       -0.0822
     26 C         143.0432  132.7655  156.8272 C.ar    1  UNL1        0.0145
     27 C         143.3021  134.2425  156.8651 C.ar    1  UNL1        0.0384
@<TRIPOS>BOND
     1     7     8    2
     2     8     1    1
     3     1     2   ar
     4     2     3   ar
     5     3     4   ar
     6     4    20    1
     7    20    21    1
     8    21    22   ar
     9    22    23   ar
    10    23    24   ar
    11    24    25    1
    12    24    26   ar
    13    26    27   ar
    14     4     5   ar
    15     5     6   ar
    16     8     9   am
    17     9    10    1
    18    10    11    1
    19    11    12    1
    20    12    13    1
    21    13    16    1
    22    16    17    1
    23    17    18    1
    24    18    19    1
    25    13    14    1
    26    14    15    1
    27     6     1   ar
    28    15     9    1
    29    27    21   ar
    30    19    16    1
@<TRIPOS>MOLECULE
*****
 27 30 0 0 0
SMALL
GASTEIGER

@<TRIPOS>ATOM
      1 C         140.4503  138.3409  162.0607 C.ar    1  UNL1        0.0729
      2 C         141.8433  137.7951  161.9527 C.ar    1  UNL1        0.0109
      3 C         142.5491  137.7972  160.6291 C.ar    1  UNL1        0.0583
      4 C         141.8619  138.3450  159.4135 C.ar    1  UNL1        0.2297
      5 N         140.4689  138.8908  159.5215 N.ar    1  UNL1       -0.2097
      6 C         139.7631  138.8888  160.8450 C.ar    1  UNL1        0.1065
      7 O         138.6736  137.3260  163.6616 O.2     1  UNL1       -0.2699
      8 C         139.7445  138.3389  163.3842 C.2     1  UNL1        0.2506
      9 N         140.1096  139.3499  164.4305 N.am    1  UNL1       -0.2746
     10 C         141.1923  140.3166  164.0516 C.3     1  UNL1        0.0952
     11 C         141.7766  141.4327  164.8659 C.3     1  UNL1        0.0388
     12 C         141.4224  141.8577  166.2601 C.3     1  UNL1        0.0739
     13 N         140.3966  141.2717  167.1844 N.3     1  UNL1       -0.2725
     14 C         139.4716  140.1159  166.9428 C.3     1  UNL1        0.0938
     15 C         139.3439  139.2607  165.7171 C.3     1  UNL1        0.1110
     16 C         140.2805  141.9284  168.5280 C.3     1  UNL1        0.0576
     17 C         140.4976  143.3169  169.0523 C.3     1  UNL1        0.0160
     18 C         140.1163  142.8571  170.4282 C.3     1  UNL1        0.0028
     19 C         139.8992  141.4685  169.9040 C.3     1  UNL1        0.0160
     20 O         142.5677  138.3470  158.0899 O.3     1  UNL1       -0.4361
     21 C         142.2610  137.2861  157.0748 C.ar    1  UNL1        0.1472
     22 C         143.2718  136.2186  156.7769 C.ar    1  UNL1        0.0384
     23 C         142.9650  135.1578  155.7617 C.ar    1  UNL1        0.0145
     24 C         141.6477  135.1645  155.0445 C.ar    1  UNL1        0.0579
     25 CL        141.3410  134.1036  154.0293 Cl      1  UNL1       -0.0822
     26 C         140.6370  136.2321  155.3425 C.ar    1  UNL1        0.0145
     27 C         140.9437  137.2929  156.3576 C.ar    1  UNL1        0.0384
@<TRIPOS>BOND
     1     7     8    2
     2     8     1    1
     3     1     2   ar
     4     2     3   ar
     5     3     4   ar
     6     4    20    1
     7    20    21    1
     8    21    22   ar
     9    22    23   ar
    10    23    24   ar
    11    24    25    1
    12    24    26   ar
    13    26    27   ar
    14     4     5   ar
    15     5     6   ar
    16     8     9   am
    17     9    10    1
    18    10    11    1
    19    11    12    1
    20    12    13    1
    21    13    16    1
    22    16    17    1
    23    17    18    1
    24    18    19    1
    25    13    14    1
    26    14    15    1
    27     6     1   ar
    28    15     9    1
    29    27    21   ar
    30    19    16    1
@<TRIPOS>MOLECULE
*****
 27 30 0 0 0
SMALL
GASTEIGER

@<TRIPOS>ATOM
      1 C         143.7564  142.7569  162.7457 C.ar    1  UNL1        0.0729
      2 C         144.3013  143.8939  163.5583 C.ar    1  UNL1        0.0109
      3 C         144.2759  143.8247  165.0565 C.ar    1  UNL1        0.0583
      4 C         143.7057  142.6187  165.7421 C.ar    1  UNL1        0.2297
      5 N         143.1608  141.4817  164.9295 N.ar    1  UNL1       -0.2097
      6 C         143.1861  141.5507  163.4314 C.ar    1  UNL1        0.1065
      7 O         144.8711  142.1338  160.4831 O.2     1  UNL1       -0.2699
      8 C         143.7818  142.8260  161.2475 C.2     1  UNL1        0.2506
      9 N         142.7178  143.5871  160.5137 N.am    1  UNL1       -0.2746
     10 C         141.6763  144.2415  161.3723 C.3     1  UNL1        0.0952
     11 C         140.4957  145.0637  160.9475 C.3     1  UNL1        0.0388
     12 C         140.0652  145.4345  159.5594 C.3     1  UNL1        0.0739
     13 N         140.7087  145.0748  158.2531 N.3     1  UNL1       -0.2725
     14 C         141.9418  144.2554  158.0123 C.3     1  UNL1        0.0938
     15 C         142.8359  143.5933  159.0184 C.3     1  UNL1        0.1110
     16 C         140.0293  145.6045  157.0252 C.3     1  UNL1        0.0576
     17 C         139.6440  146.9672  156.5305 C.3     1  UNL1        0.0160
     18 C         139.0684  146.3537  155.2887 C.3     1  UNL1        0.0028
     19 C         139.4536  144.9910  155.7832 C.3     1  UNL1        0.0160
     20 O         143.6803  142.5496  167.2403 O.3     1  UNL1       -0.4361
     21 C         142.4950  141.9580  167.9439 C.ar    1  UNL1        0.1472
     22 C         141.1495  142.6104  167.8245 C.ar    1  UNL1        0.0384
     23 C         139.9642  142.0187  168.5281 C.ar    1  UNL1        0.0145
     24 C         140.1243  140.7749  169.3510 C.ar    1  UNL1        0.0579
     25 CL        138.9390  140.1833  170.0546 Cl      1  UNL1       -0.0822
     26 C         141.4698  140.1227  169.4703 C.ar    1  UNL1        0.0145
     27 C         142.6552  140.7142  168.7668 C.ar    1  UNL1        0.0384
@<TRIPOS>BOND
     1     7     8    2
     2     8     1    1
     3     1     2   ar
     4     2     3   ar
     5     3     4   ar
     6     4    20    1
     7    20    21    1
     8    21    22   ar
     9    22    23   ar
    10    23    24   ar
    11    24    25    1
    12    24    26   ar
    13    26    27   ar
    14     4     5   ar
    15     5     6   ar
    16     8     9   am
    17     9    10    1
    18    10    11    1
    19    11    12    1
    20    12    13    1
    21    13    16    1
    22    16    17    1
    23    17    18    1
    24    18    19    1
    25    13    14    1
    26    14    15    1
    27     6     1   ar
    28    15     9    1
    29    27    21   ar
    30    19    16    1
@<TRIPOS>MOLECULE
*****
 27 30 0 0 0
SMALL
GASTEIGER

@<TRIPOS>ATOM
      1 C         143.3013  142.4862  161.7932 C.ar    1  UNL1        0.0729
      2 C         141.9543  142.7721  162.3879 C.ar    1  UNL1        0.0109
      3 C         141.8210  143.0101  163.8630 C.ar    1  UNL1        0.0583
      4 C         143.0346  142.9622  164.7431 C.ar    1  UNL1        0.2297
      5 N         144.3816  142.6763  164.1483 N.ar    1  UNL1       -0.2097
      6 C         144.5150  142.4383  162.6734 C.ar    1  UNL1        0.1065
      7 O         143.7135  143.3973  159.3953 O.2     1  UNL1       -0.2699
      8 C         143.4347  142.2482  160.3182 C.2     1  UNL1        0.2506
      9 N         143.2893  140.8611  159.7661 N.am    1  UNL1       -0.2746
     10 C         143.0118  139.7853  160.7741 C.3     1  UNL1        0.0952
     11 C         142.8171  138.3158  160.5439 C.3     1  UNL1        0.0388
     12 C         142.8518  137.5594  159.2492 C.3     1  UNL1        0.0739
     13 N         143.0898  138.0853  157.8647 N.3     1  UNL1       -0.2725
     14 C         143.3518  139.4977  157.4331 C.3     1  UNL1        0.0938
     15 C         143.4406  140.7330  158.2794 C.3     1  UNL1        0.1110
     16 C         143.0621  137.0638  156.7668 C.3     1  UNL1        0.0576
     17 C         142.1372  135.9482  156.3789 C.3     1  UNL1        0.0160
     18 C         143.0228  135.6190  155.2139 C.3     1  UNL1        0.0028
     19 C         143.9477  136.7345  155.6016 C.3     1  UNL1        0.0160
     20 O         142.9012  143.2002  166.2182 O.3     1  UNL1       -0.4361
     21 C         142.8301  142.0367  167.1622 C.ar    1  UNL1        0.1472
     22 C         142.4268  140.6836  166.6558 C.ar    1  UNL1        0.0384
     23 C         142.3557  139.5202  167.5999 C.ar    1  UNL1        0.0145
     24 C         142.6878  139.7098  169.0503 C.ar    1  UNL1        0.0579
     25 CL        142.6167  138.5463  169.9943 Cl      1  UNL1       -0.0822
     26 C         143.0911  141.0630  169.5566 C.ar    1  UNL1        0.0145
     27 C         143.1622  142.2264  168.6126 C.ar    1  UNL1        0.0384
@<TRIPOS>BOND
     1     7     8    2
     2     8     1    1
     3     1     2   ar
     4     2     3   ar
     5     3     4   ar
     6     4    20    1
     7    20    21    1
     8    21    22   ar
     9    22    23   ar
    10    23    24   ar
    11    24    25    1
    12    24    26   ar
    13    26    27   ar
    14     4     5   ar
    15     5     6   ar
    16     8     9   am
    17     9    10    1
    18    10    11    1
    19    11    12    1
    20    12    13    1
    21    13    16    1
    22    16    17    1
    23    17    18    1
    24    18    19    1
    25    13    14    1
    26    14    15    1
    27     6     1   ar
    28    15     9    1
    29    27    21   ar
    30    19    16    1
@<TRIPOS>MOLECULE
*****
 27 30 0 0 0
SMALL
GASTEIGER

@<TRIPOS>ATOM
      1 C         143.7404  139.1088  162.9568 C.ar    1  UNL1        0.0729
      2 C         142.5455  138.3957  163.5168 C.ar    1  UNL1        0.0109
      3 C         142.4146  138.2013  164.9985 C.ar    1  UNL1        0.0583
      4 C         143.4783  138.7200  165.9199 C.ar    1  UNL1        0.2297
      5 N         144.6732  139.4332  165.3598 N.ar    1  UNL1       -0.2097
      6 C         144.8043  139.6276  163.8783 C.ar    1  UNL1        0.1065
      7 O         144.4367  138.2067  160.6220 O.2     1  UNL1       -0.2699
      8 C         143.8715  139.3032  161.4753 C.2     1  UNL1        0.2506
      9 N         143.4373  140.5942  160.8469 N.am    1  UNL1       -0.2746
     10 C         142.8867  141.6236  161.7889 C.3     1  UNL1        0.0952
     11 C         142.3739  142.9982  161.4762 C.3     1  UNL1        0.0388
     12 C         142.2851  143.6828  160.1446 C.3     1  UNL1        0.0739
     13 N         142.6871  143.1620  158.7966 N.3     1  UNL1       -0.2725
     14 C         143.2772  141.8279  158.4473 C.3     1  UNL1        0.0938
     15 C         143.6111  140.6852  159.3599 C.3     1  UNL1        0.1110
     16 C         142.4703  144.0992  157.6457 C.3     1  UNL1        0.0576
     17 C         142.1040  145.5476  157.5117 C.3     1  UNL1        0.0160
     18 C         142.1637  145.4246  156.0180 C.3     1  UNL1        0.0028
     19 C         142.5300  143.9762  156.1518 C.3     1  UNL1        0.0160
     20 O         143.3473  138.5256  167.4015 O.3     1  UNL1       -0.4361
     21 C         142.5161  139.4755  168.2120 C.ar    1  UNL1        0.1472
     22 C         142.6122  139.4667  169.7089 C.ar    1  UNL1        0.0384
     23 C         141.7810  140.4166  170.5193 C.ar    1  UNL1        0.0145
     24 C         140.8537  141.3752  169.8329 C.ar    1  UNL1        0.0579
     25 CL        140.0225  142.3250  170.6434 Cl      1  UNL1       -0.0822
     26 C         140.7576  141.3838  168.3360 C.ar    1  UNL1        0.0145
     27 C         141.5888  140.4340  167.5255 C.ar    1  UNL1        0.0384
@<TRIPOS>BOND
     1     7     8    2
     2     8     1    1
     3     1     2   ar
     4     2     3   ar
     5     3     4   ar
     6     4    20    1
     7    20    21    1
     8    21    22   ar
     9    22    23   ar
    10    23    24   ar
    11    24    25    1
    12    24    26   ar
    13    26    27   ar
    14     4     5   ar
    15     5     6   ar
    16     8     9   am
    17     9    10    1
    18    10    11    1
    19    11    12    1
    20    12    13    1
    21    13    16    1
    22    16    17    1
    23    17    18    1
    24    18    19    1
    25    13    14    1
    26    14    15    1
    27     6     1   ar
    28    15     9    1
    29    27    21   ar
    30    19    16    1
