@<TRIPOS>MOLECULE
*****
 16 18 0 0 0
SMALL
GASTEIGER

@<TRIPOS>ATOM
      1 C         140.0467  139.4485  163.8339 C.3     1  UNL1        0.0521
      2 C         139.7703  139.6174  165.2985 C.ar    1  UNL1        0.0607
      3 C         138.5493  138.9948  165.9080 C.ar    1  UNL1        0.0145
      4 C         138.2729  139.1638  167.3726 C.ar    1  UNL1       -0.0002
      5 C         139.2175  139.9553  168.2277 C.ar    1  UNL1        0.0111
      6 C         140.4384  140.5779  167.6182 C.ar    1  UNL1        0.1272
      7 N         140.7148  140.4089  166.1536 N.ar    1  UNL1       -0.2353
      8 N         141.1827  141.2977  168.7036 N.pl3   1  UNL1       -0.2937
      9 C         140.4217  141.1199  169.9839 C.3     1  UNL1        0.0942
     10 C         140.9329  141.7365  171.2521 C.3     1  UNL1        0.0889
     11 N         142.2053  142.5308  171.2400 N.3     1  UNL1       -0.2947
     12 C         142.9663  142.7086  169.9597 C.3     1  UNL1        0.0886
     13 C         142.4550  142.0920  168.6915 C.3     1  UNL1        0.0899
     14 C         143.2161  142.2697  167.4112 C.3     1  UNL1        0.0229
     15 C         139.2071  140.2903  169.6898 C.3     1  UNL1        0.0503
     16 H         142.8398  142.0806  171.8996 H       1  UNL1        0.1233
@<TRIPOS>BOND
     1     1     2    1
     2     2     3   ar
     3     3     4   ar
     4     4     5   ar
     5     5     6   ar
     6     6     7   ar
     7     6     8    1
     8     8     9    1
     9     9    10    1
    10    10    11    1
    11    11    12    1
    12    12    13    1
    13    13    14    1
    14     9    15    1
    15     7     2   ar
    16    13     8    1
    17    15     5    1
    18    11    16    1
@<TRIPOS>MOLECULE
*****
 16 18 0 0 0
SMALL
GASTEIGER

@<TRIPOS>ATOM
      1 C         142.8565  140.8552  169.0737 C.3     1  UNL1        0.0521
      2 C         141.6845  140.3541  168.2829 C.ar    1  UNL1        0.0607
      3 C         140.3041  140.4172  168.8662 C.ar    1  UNL1        0.0145
      4 C         139.1321  139.9161  168.0755 C.ar    1  UNL1       -0.0002
      5 C         139.3405  139.3519  166.7013 C.ar    1  UNL1        0.0111
      6 C         140.7210  139.2888  166.1180 C.ar    1  UNL1        0.1272
      7 N         141.8930  139.7899  166.9088 N.ar    1  UNL1       -0.2353
      8 N         140.6185  138.6844  164.7489 N.pl3   1  UNL1       -0.2937
      9 C         139.1747  138.3739  164.4862 C.3     1  UNL1        0.0942
     10 C         138.7658  137.7557  163.1822 C.3     1  UNL1        0.0889
     11 N         139.8007  137.4479  162.1409 N.3     1  UNL1       -0.2947
     12 C         141.2445  137.7584  162.4037 C.3     1  UNL1        0.0886
     13 C         141.6534  138.3767  163.7077 C.3     1  UNL1        0.0899
     14 C         143.0971  138.6871  163.9704 C.3     1  UNL1        0.0229
     15 C         138.3849  138.7865  165.6929 C.3     1  UNL1        0.0503
     16 H         139.5365  137.9640  161.3017 H       1  UNL1        0.1233
@<TRIPOS>BOND
     1     1     2    1
     2     2     3   ar
     3     3     4   ar
     4     4     5   ar
     5     5     6   ar
     6     6     7   ar
     7     6     8    1
     8     8     9    1
     9     9    10    1
    10    10    11    1
    11    11    12    1
    12    12    13    1
    13    13    14    1
    14     9    15    1
    15     7     2   ar
    16    13     8    1
    17    15     5    1
    18    11    16    1
@<TRIPOS>MOLECULE
*****
 16 18 0 0 0
SMALL
GASTEIGER

@<TRIPOS>ATOM
      1 C         138.6020  144.8896  165.4645 C.3     1  UNL1        0.0521
      2 C         139.5113  144.6246  164.3013 C.ar    1  UNL1        0.0607
      3 C         139.0761  144.9849  162.9118 C.ar    1  UNL1        0.0145
      4 C         139.9854  144.7199  161.7487 C.ar    1  UNL1       -0.0002
      5 C         141.3298  144.0944  161.9750 C.ar    1  UNL1        0.0111
      6 C         141.7650  143.7341  163.3645 C.ar    1  UNL1        0.1272
      7 N         140.8557  143.9991  164.5277 N.ar    1  UNL1       -0.2353
      8 N         143.1371  143.1338  163.2795 N.pl3   1  UNL1       -0.2937
      9 C         143.5498  143.1231  161.8375 C.3     1  UNL1        0.0942
     10 C         144.8893  142.5742  161.4448 C.3     1  UNL1        0.0889
     11 N         145.8161  142.0359  162.4942 N.3     1  UNL1       -0.2947
     12 C         145.4034  142.0465  163.9362 C.3     1  UNL1        0.0886
     13 C         144.0638  142.5955  164.3289 C.3     1  UNL1        0.0899
     14 C         143.6511  142.6061  165.7709 C.3     1  UNL1        0.0229
     15 C         142.4329  143.7169  161.0313 C.3     1  UNL1        0.0503
     16 H         146.6786  142.5767  162.4308 H       1  UNL1        0.1233
@<TRIPOS>BOND
     1     1     2    1
     2     2     3   ar
     3     3     4   ar
     4     4     5   ar
     5     5     6   ar
     6     6     7   ar
     7     6     8    1
     8     8     9    1
     9     9    10    1
    10    10    11    1
    11    11    12    1
    12    12    13    1
    13    13    14    1
    14     9    15    1
    15     7     2   ar
    16    13     8    1
    17    15     5    1
    18    11    16    1
@<TRIPOS>MOLECULE
*****
 16 18 0 0 0
SMALL
GASTEIGER

@<TRIPOS>ATOM
      1 C         138.4369  145.0282  165.7651 C.3     1  UNL1        0.0521
      2 C         138.3189  144.0285  164.6530 C.ar    1  UNL1        0.0607
      3 C         138.0165  144.4904  163.2584 C.ar    1  UNL1        0.0145
      4 C         137.8984  143.4908  162.1463 C.ar    1  UNL1       -0.0002
      5 C         138.0828  142.0292  162.4288 C.ar    1  UNL1        0.0111
      6 C         138.3851  141.5673  163.8235 C.ar    1  UNL1        0.1272
      7 N         138.5032  142.5670  164.9356 N.ar    1  UNL1       -0.2353
      8 N         138.5150  140.0731  163.7990 N.pl3   1  UNL1       -0.2937
      9 C         138.2929  139.6116  162.3892 C.3     1  UNL1        0.0942
     10 C         138.3625  138.1502  162.0587 C.3     1  UNL1        0.0889
     11 N         138.6543  137.1502  163.1380 N.3     1  UNL1       -0.2947
     12 C         138.8765  137.6118  164.5478 C.3     1  UNL1        0.0886
     13 C         138.8068  139.0732  164.8783 C.3     1  UNL1        0.0899
     14 C         139.0289  139.5347  166.2881 C.3     1  UNL1        0.0229
     15 C         138.0257  140.8205  161.5424 C.3     1  UNL1        0.0503
     16 H         139.4971  136.6498  162.8558 H       1  UNL1        0.1233
@<TRIPOS>BOND
     1     1     2    1
     2     2     3   ar
     3     3     4   ar
     4     4     5   ar
     5     5     6   ar
     6     6     7   ar
     7     6     8    1
     8     8     9    1
     9     9    10    1
    10    10    11    1
    11    11    12    1
    12    12    13    1
    13    13    14    1
    14     9    15    1
    15     7     2   ar
    16    13     8    1
    17    15     5    1
    18    11    16    1
@<TRIPOS>MOLECULE
*****
 16 18 0 0 0
SMALL
GASTEIGER

@<TRIPOS>ATOM
      1 C         138.0844  139.0608  166.4448 C.3     1  UNL1        0.0521
      2 C         139.1955  140.0309  166.1723 C.ar    1  UNL1        0.0607
      3 C         140.5497  139.8097  166.7781 C.ar    1  UNL1        0.0145
      4 C         141.6608  140.7799  166.5056 C.ar    1  UNL1       -0.0002
      5 C         141.4177  141.9712  165.6273 C.ar    1  UNL1        0.0111
      6 C         140.0635  142.1925  165.0215 C.ar    1  UNL1        0.1272
      7 N         138.9524  141.2223  165.2940 N.ar    1  UNL1       -0.2353
      8 N         140.1215  143.4477  164.2023 N.pl3   1  UNL1       -0.2937
      9 C         141.5117  144.0023  164.3019 C.3     1  UNL1        0.0942
     10 C         141.8685  145.2665  163.5778 C.3     1  UNL1        0.0889
     11 N         140.8352  145.9762  162.7541 N.3     1  UNL1       -0.2947
     12 C         139.4450  145.4216  162.6545 C.3     1  UNL1        0.0886
     13 C         139.0882  144.1574  163.3786 C.3     1  UNL1        0.0899
     14 C         137.6981  143.6028  163.2790 C.3     1  UNL1        0.0229
     15 C         142.3127  143.0898  165.1826 C.3     1  UNL1        0.0503
     16 H         141.2007  146.0271  161.8032 H       1  UNL1        0.1233
@<TRIPOS>BOND
     1     1     2    1
     2     2     3   ar
     3     3     4   ar
     4     4     5   ar
     5     5     6   ar
     6     6     7   ar
     7     6     8    1
     8     8     9    1
     9     9    10    1
    10    10    11    1
    11    11    12    1
    12    12    13    1
    13    13    14    1
    14     9    15    1
    15     7     2   ar
    16    13     8    1
    17    15     5    1
    18    11    16    1
@<TRIPOS>MOLECULE
*****
 16 18 0 0 0
SMALL
GASTEIGER

@<TRIPOS>ATOM
      1 C         141.3675  141.3153  163.3941 C.3     1  UNL1        0.0521
      2 C         141.9058  141.6119  164.7624 C.ar    1  UNL1        0.0607
      3 C         143.1736  142.3989  164.9153 C.ar    1  UNL1        0.0145
      4 C         143.7119  142.6955  166.2836 C.ar    1  UNL1       -0.0002
      5 C         142.9824  142.2052  167.4990 C.ar    1  UNL1        0.0111
      6 C         141.7147  141.4182  167.3462 C.ar    1  UNL1        0.1272
      7 N         141.1764  141.1216  165.9779 N.ar    1  UNL1       -0.2353
      8 N         141.2179  141.0686  168.7178 N.pl3   1  UNL1       -0.2937
      9 C         142.1786  141.6396  169.7182 C.3     1  UNL1        0.0942
     10 C         141.9364  141.4461  171.1857 C.3     1  UNL1        0.0889
     11 N         140.7333  140.6817  171.6529 N.3     1  UNL1       -0.2947
     12 C         139.7725  140.1107  170.6525 C.3     1  UNL1        0.0886
     13 C         140.0149  140.3042  169.1849 C.3     1  UNL1        0.0899
     14 C         139.0541  139.7333  168.1844 C.3     1  UNL1        0.0229
     15 C         143.2692  142.3420  168.9650 C.3     1  UNL1        0.0503
     16 H         140.1973  141.3120  172.2494 H       1  UNL1        0.1233
@<TRIPOS>BOND
     1     1     2    1
     2     2     3   ar
     3     3     4   ar
     4     4     5   ar
     5     5     6   ar
     6     6     7   ar
     7     6     8    1
     8     8     9    1
     9     9    10    1
    10    10    11    1
    11    11    12    1
    12    12    13    1
    13    13    14    1
    14     9    15    1
    15     7     2   ar
    16    13     8    1
    17    15     5    1
    18    11    16    1
@<TRIPOS>MOLECULE
*****
 16 18 0 0 0
SMALL
GASTEIGER

@<TRIPOS>ATOM
      1 C         141.5250  143.1872  169.6254 C.3     1  UNL1        0.0521
      2 C         140.8362  142.2844  168.6453 C.ar    1  UNL1        0.0607
      3 C         140.7572  140.8102  168.9109 C.ar    1  UNL1        0.0145
      4 C         140.0684  139.9074  167.9309 C.ar    1  UNL1       -0.0002
      5 C         139.4586  140.4788  166.6853 C.ar    1  UNL1        0.0111
      6 C         139.5376  141.9529  166.4197 C.ar    1  UNL1        0.1272
      7 N         140.2264  142.8557  167.3997 N.ar    1  UNL1       -0.2353
      8 N         138.8489  142.2265  165.1154 N.pl3   1  UNL1       -0.2937
      9 C         138.3443  140.9214  164.5750 C.3     1  UNL1        0.0942
     10 C         137.6069  140.8852  163.2694 C.3     1  UNL1        0.0889
     11 N         137.3741  142.1541  162.5040 N.3     1  UNL1       -0.2947
     12 C         137.8787  143.4592  163.0445 C.3     1  UNL1        0.0886
     13 C         138.6161  143.4954  164.3502 C.3     1  UNL1        0.0899
     14 C         139.1207  144.8005  164.8906 C.3     1  UNL1        0.0229
     15 C         138.7211  139.8413  165.5452 C.3     1  UNL1        0.0503
     16 H         136.3646  142.2512  162.3949 H       1  UNL1        0.1233
@<TRIPOS>BOND
     1     1     2    1
     2     2     3   ar
     3     3     4   ar
     4     4     5   ar
     5     5     6   ar
     6     6     7   ar
     7     6     8    1
     8     8     9    1
     9     9    10    1
    10    10    11    1
    11    11    12    1
    12    12    13    1
    13    13    14    1
    14     9    15    1
    15     7     2   ar
    16    13     8    1
    17    15     5    1
    18    11    16    1
@<TRIPOS>MOLECULE
*****
 16 18 0 0 0
SMALL
GASTEIGER

@<TRIPOS>ATOM
      1 C         142.8724  139.0283  167.9973 C.3     1  UNL1        0.0521
      2 C         142.1934  140.1821  167.3209 C.ar    1  UNL1        0.0607
      3 C         140.7814  140.5376  167.6815 C.ar    1  UNL1        0.0145
      4 C         140.1024  141.6914  167.0051 C.ar    1  UNL1       -0.0002
      5 C         140.8353  142.4898  165.9681 C.ar    1  UNL1        0.0111
      6 C         142.2472  142.1344  165.6075 C.ar    1  UNL1        0.1272
      7 N         142.9262  140.9805  166.2839 N.ar    1  UNL1       -0.2353
      8 N         142.7132  143.0966  164.5552 N.pl3   1  UNL1       -0.2937
      9 C         141.5892  144.0466  164.2655 C.3     1  UNL1        0.0942
     10 C         141.7676  145.1304  163.2441 C.3     1  UNL1        0.0889
     11 N         143.0702  145.2642  162.5123 N.3     1  UNL1       -0.2947
     12 C         144.1942  144.3141  162.8020 C.3     1  UNL1        0.0886
     13 C         144.0156  143.2303  163.8235 C.3     1  UNL1        0.0899
     14 C         145.1396  142.2802  164.1132 C.3     1  UNL1        0.0229
     15 C         140.4286  143.6717  165.1387 C.3     1  UNL1        0.0503
     16 H         143.4209  146.2025  162.7044 H       1  UNL1        0.1233
@<TRIPOS>BOND
     1     1     2    1
     2     2     3   ar
     3     3     4   ar
     4     4     5   ar
     5     5     6   ar
     6     6     7   ar
     7     6     8    1
     8     8     9    1
     9     9    10    1
    10    10    11    1
    11    11    12    1
    12    12    13    1
    13    13    14    1
    14     9    15    1
    15     7     2   ar
    16    13     8    1
    17    15     5    1
    18    11    16    1
@<TRIPOS>MOLECULE
*****
 16 18 0 0 0
SMALL
GASTEIGER

@<TRIPOS>ATOM
      1 C         144.8051  140.2175  164.3069 C.3     1  UNL1        0.0521
      2 C         144.0260  141.4943  164.1943 C.ar    1  UNL1        0.0607
      3 C         144.6645  142.7982  164.5711 C.ar    1  UNL1        0.0145
      4 C         143.8854  144.0751  164.4585 C.ar    1  UNL1       -0.0002
      5 C         142.4678  144.0480  163.9691 C.ar    1  UNL1        0.0111
      6 C         141.8293  142.7440  163.5923 C.ar    1  UNL1        0.1272
      7 N         142.6084  141.4672  163.7049 N.ar    1  UNL1       -0.2353
      8 N         140.4257  143.0273  163.1453 N.pl3   1  UNL1       -0.2937
      9 C         140.1968  144.5063  163.2459 C.3     1  UNL1        0.0942
     10 C         138.8687  145.0875  162.8608 C.3     1  UNL1        0.0889
     11 N         137.7695  144.1898  162.3752 N.3     1  UNL1       -0.2947
     12 C         137.9984  142.7108  162.2747 C.3     1  UNL1        0.0886
     13 C         139.3265  142.1295  162.6597 C.3     1  UNL1        0.0899
     14 C         139.5554  140.6505  162.5592 C.3     1  UNL1        0.0229
     15 C         141.4589  145.1371  163.7550 C.3     1  UNL1        0.0503
     16 H         137.5165  144.5127  161.4414 H       1  UNL1        0.1233
@<TRIPOS>BOND
     1     1     2    1
     2     2     3   ar
     3     3     4   ar
     4     4     5   ar
     5     5     6   ar
     6     6     7   ar
     7     6     8    1
     8     8     9    1
     9     9    10    1
    10    10    11    1
    11    11    12    1
    12    12    13    1
    13    13    14    1
    14     9    15    1
    15     7     2   ar
    16    13     8    1
    17    15     5    1
    18    11    16    1
