@<TRIPOS>MOLECULE
*****
 27 30 0 0 0
SMALL
GASTEIGER

@<TRIPOS>ATOM
      1 C         138.3468  141.6453  164.0759 C.ar    1  UNL1        0.2324
      2 N         138.8908  141.4842  165.4645 N.ar    1  UNL1       -0.2111
      3 C         139.3072  140.1290  165.9543 C.ar    1  UNL1        0.0890
      4 C         139.1796  138.9348  165.0556 C.ar    1  UNL1        0.0391
      5 C         138.6356  139.0959  163.6670 C.ar    1  UNL1        0.0940
      6 N         138.3956  138.1098  162.5625 N.ar    1  UNL1       -0.2361
      7 C         137.8308  138.8556  161.3900 C.ar    1  UNL1        0.1346
      8 S         137.7218  140.3027  161.7699 S.2     1  UNL1       -0.0598
      9 C         138.2193  140.4511  163.1772 C.ar    1  UNL1        0.1017
     10 C         139.8512  139.9679  167.3429 C.ar    1  UNL1        0.0576
     11 C         139.0592  140.0444  168.6145 C.ar    1  UNL1        0.1233
     12 N         140.0012  139.8258  169.7611 N.ar    1  UNL1       -0.1632
     13 N         141.3754  139.6143  169.1983 N.ar    1  UNL1       -0.1912
     14 C         141.2827  139.7021  167.7037 C.ar    1  UNL1        0.1037
     15 C         142.6232  139.3596  169.9908 C.3     1  UNL1        0.4298
     16 F         142.9975  137.9577  170.3706 F       1  UNL1       -0.1711
     17 F         143.4969  140.5071  170.4033 F       1  UNL1       -0.1711
     18 O         137.9305  143.0005  163.5861 O.3     1  UNL1       -0.4598
     19 C         138.9112  144.8823  165.0850 C.3     1  UNL1        0.0513
     20 C         138.8454  144.1758  163.7634 C.3     1  UNL1        0.2091
     21 C         139.6945  144.6447  162.6192 C.3     1  UNL1        0.2295
     22 C         141.1422  145.0298  162.6955 C.3     1  UNL1        0.1400
     23 N         141.5874  145.4338  161.3213 N.am    1  UNL1       -0.2668
     24 C         140.4149  145.2984  160.3956 C.2     1  UNL1        0.4018
     25 O         140.4126  145.5981  158.9259 O.2     1  UNL1       -0.2264
     26 O         139.2450  144.8107  161.1978 O.3     1  UNL1       -0.4329
     27 H         142.4906  145.7350  161.0709 H       1  UNL1        0.1529
@<TRIPOS>BOND
     1    20    19    1
     2    20    18    1
     3    18     1    1
     4     1     2   ar
     5     2     3   ar
     6     3    10    1
     7    10    11   ar
     8    11    12   ar
     9    12    13   ar
    10    13    15    1
    11    15    16    1
    12    15    17    1
    13    13    14   ar
    14     3     4   ar
    15     4     5   ar
    16     5     6   ar
    17     6     7   ar
    18     7     8   ar
    19     8     9   ar
    20    20    21    1
    21    21    22    1
    22    22    23    1
    23    23    24   am
    24    24    25    2
    25    24    26    1
    26     9     1   ar
    27    26    21    1
    28    14    10   ar
    29     9     5   ar
    30    23    27    1
@<TRIPOS>MOLECULE
*****
 27 30 0 0 0
SMALL
GASTEIGER

@<TRIPOS>ATOM
      1 C         138.2887  141.3479  163.6446 C.ar    1  UNL1        0.2324
      2 N         138.7987  141.7157  165.0065 N.ar    1  UNL1       -0.2111
      3 C         139.3594  140.6567  165.9085 C.ar    1  UNL1        0.0890
      4 C         139.4103  139.2297  165.4488 C.ar    1  UNL1        0.0391
      5 C         138.9003  138.8619  164.0870 C.ar    1  UNL1        0.0940
      6 N         138.8215  137.5492  163.3655 N.ar    1  UNL1       -0.2361
      7 C         138.2121  137.7970  162.0175 C.ar    1  UNL1        0.1346
      8 S         137.9142  139.2628  161.9058 S.2     1  UNL1       -0.0598
      9 C         138.3396  139.9210  163.1848 C.ar    1  UNL1        0.1017
     10 C         139.8694  141.0245  167.2705 C.ar    1  UNL1        0.0576
     11 C         139.9360  140.1157  168.4620 C.ar    1  UNL1        0.1233
     12 N         140.5100  140.8952  169.6078 N.ar    1  UNL1       -0.1632
     13 N         140.7982  142.2856  169.1245 N.ar    1  UNL1       -0.1912
     14 C         140.4023  142.3655  167.6799 C.ar    1  UNL1        0.1037
     15 C         141.3801  143.4005  169.9421 C.3     1  UNL1        0.4298
     16 F         142.6954  143.2127  170.6382 F       1  UNL1       -0.1711
     17 F         140.6466  144.7033  170.0634 F       1  UNL1       -0.1711
     18 O         137.7280  142.4070  162.7425 O.3     1  UNL1       -0.4598
     19 C         138.5298  142.7594  160.2965 C.3     1  UNL1        0.0513
     20 C         138.6192  143.0998  161.7547 C.3     1  UNL1        0.2091
     21 C         139.5998  144.1329  162.2251 C.3     1  UNL1        0.2295
     22 C         139.4713  145.6165  162.0458 C.3     1  UNL1        0.1400
     23 N         140.6731  146.2643  162.6672 N.am    1  UNL1       -0.2668
     24 C         141.5443  145.1810  163.2305 C.2     1  UNL1        0.4018
     25 O         142.8496  145.3800  163.9422 O.2     1  UNL1       -0.2264
     26 O         140.8809  143.8636  162.9573 O.3     1  UNL1       -0.4329
     27 H         140.8576  147.2308  162.6996 H       1  UNL1        0.1529
@<TRIPOS>BOND
     1    20    19    1
     2    20    18    1
     3    18     1    1
     4     1     2   ar
     5     2     3   ar
     6     3    10    1
     7    10    11   ar
     8    11    12   ar
     9    12    13   ar
    10    13    15    1
    11    15    16    1
    12    15    17    1
    13    13    14   ar
    14     3     4   ar
    15     4     5   ar
    16     5     6   ar
    17     6     7   ar
    18     7     8   ar
    19     8     9   ar
    20    20    21    1
    21    21    22    1
    22    22    23    1
    23    23    24   am
    24    24    25    2
    25    24    26    1
    26     9     1   ar
    27    26    21    1
    28    14    10   ar
    29     9     5   ar
    30    23    27    1
@<TRIPOS>MOLECULE
*****
 27 30 0 0 0
SMALL
GASTEIGER

@<TRIPOS>ATOM
      1 C         141.3116  140.8616  163.0786 C.ar    1  UNL1        0.2324
      2 N         141.2999  141.3225  164.5060 N.ar    1  UNL1       -0.2111
      3 C         140.3270  140.7254  165.4789 C.ar    1  UNL1        0.0890
      4 C         139.3657  139.6673  165.0246 C.ar    1  UNL1        0.0391
      5 C         139.3774  139.2064  163.5973 C.ar    1  UNL1        0.0940
      6 N         138.5553  138.1878  162.8647 N.ar    1  UNL1       -0.2361
      7 C         139.0202  138.1554  161.4390 C.ar    1  UNL1        0.1346
      8 S         140.1296  139.1540  161.2903 S.2     1  UNL1       -0.0598
      9 C         140.3503  139.8035  162.6242 C.ar    1  UNL1        0.1017
     10 C         140.3154  141.1864  166.9064 C.ar    1  UNL1        0.0576
     11 C         139.7305  140.4405  168.0690 C.ar    1  UNL1        0.1233
     12 N         139.9401  141.2672  169.3029 N.ar    1  UNL1       -0.1632
     13 N         140.6546  142.5240  168.9030 N.ar    1  UNL1       -0.1912
     14 C         140.8865  142.4740  167.4218 C.ar    1  UNL1        0.1037
     15 C         141.0651  143.6357  169.8225 C.3     1  UNL1        0.4298
     16 F         142.4261  143.6237  170.4529 F       1  UNL1       -0.1711
     17 F         140.1145  144.7594  170.1117 F       1  UNL1       -0.1711
     18 O         142.2846  141.4587  162.1056 O.3     1  UNL1       -0.4598
     19 C         144.3659  142.9287  162.6127 C.3     1  UNL1        0.0513
     20 C         142.8894  142.8038  162.3796 C.3     1  UNL1        0.2091
     21 C         142.0176  144.0238  162.4204 C.3     1  UNL1        0.2295
     22 C         142.0638  145.1060  163.4580 C.3     1  UNL1        0.1400
     23 N         141.0214  146.1268  163.1097 N.am    1  UNL1       -0.2668
     24 C         140.3310  145.6755  161.8569 C.2     1  UNL1        0.4018
     25 O         139.2199  146.3972  161.1536 O.2     1  UNL1       -0.2264
     26 O         140.9467  144.3757  161.4309 O.3     1  UNL1       -0.4329
     27 H         140.8249  146.9487  163.6148 H       1  UNL1        0.1529
@<TRIPOS>BOND
     1    20    19    1
     2    20    18    1
     3    18     1    1
     4     1     2   ar
     5     2     3   ar
     6     3    10    1
     7    10    11   ar
     8    11    12   ar
     9    12    13   ar
    10    13    15    1
    11    15    16    1
    12    15    17    1
    13    13    14   ar
    14     3     4   ar
    15     4     5   ar
    16     5     6   ar
    17     6     7   ar
    18     7     8   ar
    19     8     9   ar
    20    20    21    1
    21    21    22    1
    22    22    23    1
    23    23    24   am
    24    24    25    2
    25    24    26    1
    26     9     1   ar
    27    26    21    1
    28    14    10   ar
    29     9     5   ar
    30    23    27    1
@<TRIPOS>MOLECULE
*****
 27 30 0 0 0
SMALL
GASTEIGER

@<TRIPOS>ATOM
      1 C         141.2694  140.6435  162.6127 C.ar    1  UNL1        0.2324
      2 N         141.4612  140.8707  164.0829 N.ar    1  UNL1       -0.2111
      3 C         142.4997  140.0908  164.8332 C.ar    1  UNL1        0.0890
      4 C         143.3466  139.0834  164.1132 C.ar    1  UNL1        0.0391
      5 C         143.1548  138.8562  162.6430 C.ar    1  UNL1        0.0940
      6 N         143.8355  137.9373  161.6723 N.ar    1  UNL1       -0.2361
      7 C         143.2175  138.1494  160.3221 C.ar    1  UNL1        0.1346
      8 S         142.1550  139.1994  160.4583 S.2     1  UNL1       -0.0598
      9 C         142.1162  139.6362  161.8927 C.ar    1  UNL1        0.1017
     10 C         142.6915  140.3180  166.3035 C.ar    1  UNL1        0.0576
     11 C         142.6457  139.2659  167.3716 C.ar    1  UNL1        0.1233
     12 N         142.8886  139.9349  168.6919 N.ar    1  UNL1       -0.1632
     13 N         143.0846  141.4005  168.4399 N.ar    1  UNL1       -0.1912
     14 C         142.9628  141.6373  166.9637 C.ar    1  UNL1        0.1037
     15 C         143.3549  142.4459  169.4811 C.3     1  UNL1        0.4298
     16 F         144.7294  142.5849  170.0652 F       1  UNL1       -0.1711
     17 F         142.2505  143.3524  169.9381 F       1  UNL1       -0.1711
     18 O         140.2309  141.4235  161.8624 O.3     1  UNL1       -0.4598
     19 C         137.7134  141.1961  162.4628 C.3     1  UNL1        0.0513
     20 C         139.0146  141.9336  162.5769 C.3     1  UNL1        0.2091
     21 C         139.0995  143.1811  163.4054 C.3     1  UNL1        0.2295
     22 C         140.0172  144.3419  163.1596 C.3     1  UNL1        0.1400
     23 N         139.7666  145.3650  164.2275 N.am    1  UNL1       -0.2668
     24 C         138.6941  144.8367  165.1332 C.2     1  UNL1        0.4018
     25 O         138.1324  145.5353  166.3358 O.2     1  UNL1       -0.2264
     26 O         138.2818  143.4869  164.6251 O.3     1  UNL1       -0.4329
     27 H         140.2255  146.2313  164.3180 H       1  UNL1        0.1529
@<TRIPOS>BOND
     1    20    19    1
     2    20    18    1
     3    18     1    1
     4     1     2   ar
     5     2     3   ar
     6     3    10    1
     7    10    11   ar
     8    11    12   ar
     9    12    13   ar
    10    13    15    1
    11    15    16    1
    12    15    17    1
    13    13    14   ar
    14     3     4   ar
    15     4     5   ar
    16     5     6   ar
    17     6     7   ar
    18     7     8   ar
    19     8     9   ar
    20    20    21    1
    21    21    22    1
    22    22    23    1
    23    23    24   am
    24    24    25    2
    25    24    26    1
    26     9     1   ar
    27    26    21    1
    28    14    10   ar
    29     9     5   ar
    30    23    27    1
@<TRIPOS>MOLECULE
*****
 27 30 0 0 0
SMALL
GASTEIGER

@<TRIPOS>ATOM
      1 C         139.0621  141.5182  163.9789 C.ar    1  UNL1        0.2324
      2 N         139.5421  141.3644  165.3916 N.ar    1  UNL1       -0.2111
      3 C         139.6184  140.0016  166.0136 C.ar    1  UNL1        0.0890
      4 C         139.2148  138.7925  165.2229 C.ar    1  UNL1        0.0391
      5 C         138.7348  138.9463  163.8101 C.ar    1  UNL1        0.0940
      6 N         138.2731  137.9457  162.7924 N.ar    1  UNL1       -0.2361
      7 C         137.9115  138.6902  161.5414 C.ar    1  UNL1        0.1346
      8 S         138.1496  140.1509  161.7860 S.2     1  UNL1       -0.0598
      9 C         138.6584  140.3092  163.1881 C.ar    1  UNL1        0.1017
     10 C         140.0984  139.8478  167.4265 C.ar    1  UNL1        0.0576
     11 C         139.2722  140.0376  168.6639 C.ar    1  UNL1        0.1233
     12 N         140.1521  139.7844  169.8521 N.ar    1  UNL1       -0.1632
     13 N         141.5221  139.4380  169.3490 N.ar    1  UNL1       -0.1912
     14 C         141.4889  139.4773  167.8498 C.ar    1  UNL1        0.1037
     15 C         142.7157  139.1100  170.1961 C.3     1  UNL1        0.4298
     16 F         143.0677  137.6787  170.4741 F       1  UNL1       -0.1711
     17 F         143.5574  140.2136  170.7652 F       1  UNL1       -0.1711
     18 O         138.9857  142.8810  163.3569 O.3     1  UNL1       -0.4598
     19 C         138.6859  144.9793  164.8593 C.3     1  UNL1        0.0513
     20 C         139.5727  144.0640  164.0681 C.3     1  UNL1        0.2091
     21 C         141.0464  144.3317  163.9882 C.3     1  UNL1        0.2295
     22 C         141.7144  145.3246  163.0838 C.3     1  UNL1        0.1400
     23 N         143.1917  145.2601  163.3352 N.am    1  UNL1       -0.2668
     24 C         143.4369  144.2274  164.3950 C.2     1  UNL1        0.4018
     25 O         144.7732  143.8369  164.9533 O.2     1  UNL1       -0.2264
     26 O         142.1110  143.6536  164.7986 O.3     1  UNL1       -0.4329
     27 H         143.8796  145.8007  162.8839 H       1  UNL1        0.1529
@<TRIPOS>BOND
     1    20    19    1
     2    20    18    1
     3    18     1    1
     4     1     2   ar
     5     2     3   ar
     6     3    10    1
     7    10    11   ar
     8    11    12   ar
     9    12    13   ar
    10    13    15    1
    11    15    16    1
    12    15    17    1
    13    13    14   ar
    14     3     4   ar
    15     4     5   ar
    16     5     6   ar
    17     6     7   ar
    18     7     8   ar
    19     8     9   ar
    20    20    21    1
    21    21    22    1
    22    22    23    1
    23    23    24   am
    24    24    25    2
    25    24    26    1
    26     9     1   ar
    27    26    21    1
    28    14    10   ar
    29     9     5   ar
    30    23    27    1
@<TRIPOS>MOLECULE
*****
 27 30 0 0 0
SMALL
GASTEIGER

@<TRIPOS>ATOM
      1 C         142.2532  142.8268  163.3306 C.ar    1  UNL1        0.2324
      2 N         141.9421  142.2619  164.6849 N.ar    1  UNL1       -0.2111
      3 C         140.7555  142.7642  165.4526 C.ar    1  UNL1        0.0890
      4 C         139.8798  143.8316  164.8661 C.ar    1  UNL1        0.0391
      5 C         140.1909  144.3966  163.5118 C.ar    1  UNL1        0.0940
      6 N         139.5141  145.4481  162.6834 N.ar    1  UNL1       -0.2361
      7 C         140.2826  145.5956  161.4037 C.ar    1  UNL1        0.1346
      8 S         141.4343  144.6353  161.4412 S.2     1  UNL1       -0.0598
      9 C         141.3776  143.8942  162.7441 C.ar    1  UNL1        0.1017
     10 C         140.4444  142.1992  166.8069 C.ar    1  UNL1        0.0576
     11 C         139.9874  140.7998  167.0946 C.ar    1  UNL1        0.1233
     12 N         139.7963  140.6701  168.5767 N.ar    1  UNL1       -0.1632
     13 N         140.1352  141.9893  169.2050 N.ar    1  UNL1       -0.1912
     14 C         140.5358  142.9343  168.1112 C.ar    1  UNL1        0.1037
     15 C         140.0828  142.3077  170.6699 C.3     1  UNL1        0.4298
     16 F         140.9221  141.5275  171.6376 F       1  UNL1       -0.1711
     17 F         139.1909  143.4067  171.1670 F       1  UNL1       -0.1711
     18 O         143.4399  142.3245  162.5629 O.3     1  UNL1       -0.4598
     19 C         145.4108  141.0900  163.7212 C.3     1  UNL1        0.0513
     20 C         144.1119  141.0474  162.9720 C.3     1  UNL1        0.2091
     21 C         143.4852  139.7277  162.6319 C.3     1  UNL1        0.2295
     22 C         144.0126  138.7297  161.6441 C.3     1  UNL1        0.1400
     23 N         143.0744  137.5596  161.6216 N.am    1  UNL1       -0.2668
     24 C         141.9671  137.8344  162.5954 C.2     1  UNL1        0.4018
     25 O         140.8092  136.9283  162.8926 O.2     1  UNL1       -0.2264
     26 O         142.2210  139.1744  163.2198 O.3     1  UNL1       -0.4329
     27 H         143.1688  136.7528  161.0653 H       1  UNL1        0.1529
@<TRIPOS>BOND
     1    20    19    1
     2    20    18    1
     3    18     1    1
     4     1     2   ar
     5     2     3   ar
     6     3    10    1
     7    10    11   ar
     8    11    12   ar
     9    12    13   ar
    10    13    15    1
    11    15    16    1
    12    15    17    1
    13    13    14   ar
    14     3     4   ar
    15     4     5   ar
    16     5     6   ar
    17     6     7   ar
    18     7     8   ar
    19     8     9   ar
    20    20    21    1
    21    21    22    1
    22    22    23    1
    23    23    24   am
    24    24    25    2
    25    24    26    1
    26     9     1   ar
    27    26    21    1
    28    14    10   ar
    29     9     5   ar
    30    23    27    1
@<TRIPOS>MOLECULE
*****
 27 30 0 0 0
SMALL
GASTEIGER

@<TRIPOS>ATOM
      1 C         140.6847  140.2303  163.0732 C.ar    1  UNL1        0.2324
      2 N         140.9521  139.8875  164.5088 N.ar    1  UNL1       -0.2111
      3 C         140.1399  140.5261  165.5962 C.ar    1  UNL1        0.0890
      4 C         139.0602  141.5075  165.2480 C.ar    1  UNL1        0.0391
      5 C         138.7928  141.8502  163.8124 C.ar    1  UNL1        0.0940
      6 N         137.8021  142.7746  163.1690 N.ar    1  UNL1       -0.2361
      7 C         138.0021  142.7074  161.6839 C.ar    1  UNL1        0.1346
      8 S         139.1164  141.7414  161.4095 S.2     1  UNL1       -0.0598
      9 C         139.6050  141.2116  162.7250 C.ar    1  UNL1        0.1017
     10 C         140.4073  140.1833  167.0318 C.ar    1  UNL1        0.0576
     11 C         139.3914  140.1530  168.1350 C.ar    1  UNL1        0.1233
     12 N         140.0938  139.7616  169.4013 N.ar    1  UNL1       -0.1632
     13 N         141.5438  139.5500  169.0808 N.ar    1  UNL1       -0.1912
     14 C         141.7375  139.8106  167.6163 C.ar    1  UNL1        0.1037
     15 C         142.6125  139.1483  170.0537 C.3     1  UNL1        0.4298
     16 F         142.8454  137.6976  170.3552 F       1  UNL1       -0.1711
     17 F         143.4483  140.1976  170.7250 F       1  UNL1       -0.1711
     18 O         141.4970  139.5917  161.9858 O.3     1  UNL1       -0.4598
     19 C         143.7237  138.2554  161.9084 C.3     1  UNL1        0.0513
     20 C         142.9927  139.5524  162.0915 C.3     1  UNL1        0.2091
     21 C         143.7574  140.8101  162.3804 C.3     1  UNL1        0.2295
     22 C         145.1145  140.8909  163.0142 C.3     1  UNL1        0.1400
     23 N         145.4951  142.3385  163.1117 N.am    1  UNL1       -0.2668
     24 C         144.3733  143.1524  162.5382 C.2     1  UNL1        0.4018
     25 O         144.3326  144.6483  162.4348 O.2     1  UNL1       -0.2264
     26 O         143.2993  142.2078  162.0862 O.3     1  UNL1       -0.4329
     27 H         146.3340  142.6923  163.4864 H       1  UNL1        0.1529
@<TRIPOS>BOND
     1    20    19    1
     2    20    18    1
     3    18     1    1
     4     1     2   ar
     5     2     3   ar
     6     3    10    1
     7    10    11   ar
     8    11    12   ar
     9    12    13   ar
    10    13    15    1
    11    15    16    1
    12    15    17    1
    13    13    14   ar
    14     3     4   ar
    15     4     5   ar
    16     5     6   ar
    17     6     7   ar
    18     7     8   ar
    19     8     9   ar
    20    20    21    1
    21    21    22    1
    22    22    23    1
    23    23    24   am
    24    24    25    2
    25    24    26    1
    26     9     1   ar
    27    26    21    1
    28    14    10   ar
    29     9     5   ar
    30    23    27    1
@<TRIPOS>MOLECULE
*****
 27 30 0 0 0
SMALL
GASTEIGER

@<TRIPOS>ATOM
      1 C         138.8110  142.4991  160.7338 C.ar    1  UNL1        0.2324
      2 N         138.8412  141.6733  161.9856 N.ar    1  UNL1       -0.2111
      3 C         138.4761  140.2194  161.9340 C.ar    1  UNL1        0.0890
      4 C         138.0807  139.5912  160.6305 C.ar    1  UNL1        0.0391
      5 C         138.0505  140.4170  159.3787 C.ar    1  UNL1        0.0940
      6 N         137.7039  140.0761  157.9596 N.ar    1  UNL1       -0.2361
      7 C         137.8549  141.3195  157.1342 C.ar    1  UNL1        0.1346
      8 S         138.2947  142.4288  158.0432 S.2     1  UNL1       -0.0598
      9 C         138.4156  141.8709  159.4303 C.ar    1  UNL1        0.1017
     10 C         138.5064  139.3935  163.1859 C.ar    1  UNL1        0.0576
     11 C         138.9724  137.9718  163.2932 C.ar    1  UNL1        0.1233
     12 N         138.8300  137.5441  164.7238 N.ar    1  UNL1       -0.1632
     13 N         138.2759  138.7014  165.5008 N.ar    1  UNL1       -0.1912
     14 C         138.0759  139.8444  164.5502 C.ar    1  UNL1        0.1037
     15 C         137.9747  138.7137  166.9701 C.3     1  UNL1        0.4298
     16 F         138.7763  139.5829  167.8929 F       1  UNL1       -0.1711
     17 F         136.8716  137.8565  167.5167 F       1  UNL1       -0.1711
     18 O         139.1761  143.9531  160.7855 O.3     1  UNL1       -0.4598
     19 C         139.0697  145.1492  163.0894 C.3     1  UNL1        0.0513
     20 C         139.8697  144.5097  161.9934 C.3     1  UNL1        0.2091
     21 C         141.3632  144.4269  162.1053 C.3     1  UNL1        0.2295
     22 C         142.2398  145.3457  162.9037 C.3     1  UNL1        0.1400
     23 N         143.6607  144.8974  162.7302 N.am    1  UNL1       -0.2668
     24 C         143.6623  143.7017  161.8247 C.2     1  UNL1        0.4018
     25 O         144.8715  142.9318  161.3830 O.2     1  UNL1       -0.2264
     26 O         142.2423  143.4109  161.4384 O.3     1  UNL1       -0.4329
     27 H         144.4531  145.3148  163.1390 H       1  UNL1        0.1529
@<TRIPOS>BOND
     1    20    19    1
     2    20    18    1
     3    18     1    1
     4     1     2   ar
     5     2     3   ar
     6     3    10    1
     7    10    11   ar
     8    11    12   ar
     9    12    13   ar
    10    13    15    1
    11    15    16    1
    12    15    17    1
    13    13    14   ar
    14     3     4   ar
    15     4     5   ar
    16     5     6   ar
    17     6     7   ar
    18     7     8   ar
    19     8     9   ar
    20    20    21    1
    21    21    22    1
    22    22    23    1
    23    23    24   am
    24    24    25    2
    25    24    26    1
    26     9     1   ar
    27    26    21    1
    28    14    10   ar
    29     9     5   ar
    30    23    27    1
@<TRIPOS>MOLECULE
*****
 27 30 0 0 0
SMALL
GASTEIGER

@<TRIPOS>ATOM
      1 C         141.8254  138.9733  163.9614 C.ar    1  UNL1        0.2324
      2 N         141.7372  139.6439  165.3002 N.ar    1  UNL1       -0.2111
      3 C         140.4010  140.0426  165.8527 C.ar    1  UNL1        0.0890
      4 C         139.1528  139.7708  165.0664 C.ar    1  UNL1        0.0391
      5 C         139.2410  139.1002  163.7275 C.ar    1  UNL1        0.0940
      6 N         138.1912  138.7060  162.7314 N.ar    1  UNL1       -0.2361
      7 C         138.8787  138.0636  161.5632 C.ar    1  UNL1        0.1346
      8 S         140.3534  138.0608  161.8374 S.2     1  UNL1       -0.0598
      9 C         140.5773  138.7015  163.1750 C.ar    1  UNL1        0.1017
     10 C         140.3128  140.7132  167.1917 C.ar    1  UNL1        0.0576
     11 C         139.5330  140.2207  168.3747 C.ar    1  UNL1        0.1233
     12 N         139.7271  141.1971  169.4967 N.ar    1  UNL1       -0.1632
     13 N         140.6268  142.2929  169.0073 N.ar    1  UNL1       -0.1912
     14 C         140.9888  141.9938  167.5826 C.ar    1  UNL1        0.1037
     15 C         141.0844  143.4795  169.8026 C.3     1  UNL1        0.4298
     16 F         142.4855  143.5303  170.3354 F       1  UNL1       -0.1711
     17 F         140.1405  144.6155  170.0650 F       1  UNL1       -0.1711
     18 O         143.1618  138.5746  163.4089 O.3     1  UNL1       -0.4598
     19 C         144.1124  138.8226  161.0037 C.3     1  UNL1        0.0513
     20 C         143.8161  139.4125  162.3507 C.3     1  UNL1        0.2091
     21 C         144.1743  140.8401  162.6395 C.3     1  UNL1        0.2295
     22 C         144.7012  141.8348  161.6481 C.3     1  UNL1        0.1400
     23 N         144.9210  143.1332  162.3663 N.am    1  UNL1       -0.2668
     24 C         144.5298  142.9410  163.8016 C.2     1  UNL1        0.4018
     25 O         144.5897  143.9831  164.8789 O.2     1  UNL1       -0.2264
     26 O         144.0683  141.5238  163.9705 O.3     1  UNL1       -0.4329
     27 H         145.2620  143.9654  161.9659 H       1  UNL1        0.1529
@<TRIPOS>BOND
     1    20    19    1
     2    20    18    1
     3    18     1    1
     4     1     2   ar
     5     2     3   ar
     6     3    10    1
     7    10    11   ar
     8    11    12   ar
     9    12    13   ar
    10    13    15    1
    11    15    16    1
    12    15    17    1
    13    13    14   ar
    14     3     4   ar
    15     4     5   ar
    16     5     6   ar
    17     6     7   ar
    18     7     8   ar
    19     8     9   ar
    20    20    21    1
    21    21    22    1
    22    22    23    1
    23    23    24   am
    24    24    25    2
    25    24    26    1
    26     9     1   ar
    27    26    21    1
    28    14    10   ar
    29     9     5   ar
    30    23    27    1
