@<TRIPOS>MOLECULE
*****
 29 33 0 0 0
SMALL
GASTEIGER

@<TRIPOS>ATOM
      1 C         141.6398  143.5931  163.0330 C.ar    1  UNL1        0.0872
      2 C         142.9106  143.9558  163.7426 C.ar    1  UNL1        0.0197
      3 C         143.3618  143.1559  164.9286 C.ar    1  UNL1        0.0030
      4 C         142.5423  141.9933  165.4049 C.ar    1  UNL1        0.0174
      5 C         142.9936  141.1934  166.5909 C.ar    1  UNL1       -0.0027
      6 C         142.1741  140.0309  167.0672 C.ar    1  UNL1       -0.0207
      7 C         140.9033  139.6682  166.3575 C.ar    1  UNL1       -0.0027
      8 C         140.4521  140.4681  165.1715 C.ar    1  UNL1        0.0188
      9 C         141.2716  141.6306  164.6952 C.ar    1  UNL1        0.0812
     10 N         140.8203  142.4305  163.5093 N.ar    1  UNL1       -0.2449
     11 C         140.9597  145.2339  159.5817 C.ar    1  UNL1        0.0355
     12 C         140.0285  146.0137  160.4620 C.ar    1  UNL1        0.0075
     13 C         140.1700  145.4940  161.8619 C.ar    1  UNL1        0.0085
     14 C         141.1885  144.3930  161.8469 C.ar    1  UNL1        0.0471
     15 S         141.6766  144.2322  160.4377 S.2     1  UNL1       -0.0849
     16 C         140.1958  146.7437  154.5801 C.3     1  UNL1        0.0382
     17 C         140.7908  146.1166  155.8059 C.ar    1  UNL1        0.0076
     18 C         142.0539  145.3094  155.8586 C.ar    1  UNL1        0.0027
     19 C         142.2710  144.8805  157.2794 C.ar    1  UNL1        0.0072
     20 C         141.1419  145.4226  158.1048 C.ar    1  UNL1        0.0351
     21 S         140.2271  146.1865  157.1942 S.2     1  UNL1       -0.0908
     22 C         142.6253  139.2310  168.2532 C.3     1  UNL1        0.0437
     23 C         142.3019  139.6996  169.6409 C.3     1  UNL1        0.0768
     24 N         141.6880  141.0519  169.8519 N.3     1  UNL1       -0.2737
     25 C         140.2228  141.3437  169.9863 C.3     1  UNL1        0.0721
     26 C         140.0607  142.8219  170.1830 C.3     1  UNL1        0.0187
     27 C         141.4257  143.4436  170.1700 C.3     1  UNL1        0.0174
     28 C         142.4314  142.3497  169.9654 C.3     1  UNL1        0.0576
     29 C         143.9193  142.5232  169.8879 C.3     1  UNL1        0.0173
@<TRIPOS>BOND
     1    16    17    1
     2    17    18   ar
     3    18    19   ar
     4    19    20   ar
     5    20    11    1
     6    11    12   ar
     7    12    13   ar
     8    13    14   ar
     9    14     1    1
    10     1     2   ar
    11     2     3   ar
    12     3     4   ar
    13     4     5   ar
    14     5     6   ar
    15     6    22    1
    16    22    23    1
    17    23    24    1
    18    24    25    1
    19    25    26    1
    20    26    27    1
    21    27    28    1
    22    28    29    1
    23     6     7   ar
    24     7     8   ar
    25     8     9   ar
    26     9    10   ar
    27    14    15   ar
    28    20    21   ar
    29    21    17   ar
    30    15    11   ar
    31    10     1   ar
    32     9     4   ar
    33    28    24    1
@<TRIPOS>MOLECULE
*****
 29 33 0 0 0
SMALL
GASTEIGER

@<TRIPOS>ATOM
      1 C         142.0593  144.2476  161.5990 C.ar    1  UNL1        0.0872
      2 C         140.8248  145.0857  161.7524 C.ar    1  UNL1        0.0197
      3 C         140.1801  145.6993  160.5450 C.ar    1  UNL1        0.0030
      4 C         140.7700  145.4749  159.1842 C.ar    1  UNL1        0.0174
      5 C         140.1253  146.0886  157.9768 C.ar    1  UNL1       -0.0027
      6 C         140.7151  145.8642  156.6160 C.ar    1  UNL1       -0.0207
      7 C         141.9497  145.0261  156.4627 C.ar    1  UNL1       -0.0027
      8 C         142.5944  144.4124  157.6700 C.ar    1  UNL1        0.0188
      9 C         142.0045  144.6368  159.0308 C.ar    1  UNL1        0.0812
     10 N         142.6492  144.0232  160.2382 N.ar    1  UNL1       -0.2449
     11 C         143.1703  142.1548  164.6733 C.ar    1  UNL1        0.0355
     12 C         144.2219  143.2243  164.6554 C.ar    1  UNL1        0.0075
     13 C         143.9338  144.1384  163.5015 C.ar    1  UNL1        0.0085
     14 C         142.7040  143.6339  162.8064 C.ar    1  UNL1        0.0471
     15 S         142.2322  142.4080  163.5306 S.2     1  UNL1       -0.0849
     16 C         142.3049  139.4293  169.1121 C.3     1  UNL1        0.0382
     17 C         142.6759  139.7769  167.7009 C.ar    1  UNL1        0.0076
     18 C         143.1742  138.8198  166.6590 C.ar    1  UNL1        0.0027
     19 C         143.4201  139.5941  165.3980 C.ar    1  UNL1        0.0072
     20 C         143.0737  141.0297  165.6606 C.ar    1  UNL1        0.0351
     21 S         142.6138  141.1427  167.0839 S.2     1  UNL1       -0.0908
     22 C         140.0705  146.4778  155.4086 C.3     1  UNL1        0.0437
     23 C         138.8519  147.3386  155.5649 C.3     1  UNL1        0.0768
     24 N         138.9583  148.8258  155.4017 N.3     1  UNL1       -0.2737
     25 C         139.4568  149.5457  154.1838 C.3     1  UNL1        0.0721
     26 C         139.3915  151.0192  154.4570 C.3     1  UNL1        0.0187
     27 C         138.8526  151.2099  155.8439 C.3     1  UNL1        0.0174
     28 C         138.5849  149.8544  156.4277 C.3     1  UNL1        0.0576
     29 C         138.0396  149.5762  157.7970 C.3     1  UNL1        0.0173
@<TRIPOS>BOND
     1    16    17    1
     2    17    18   ar
     3    18    19   ar
     4    19    20   ar
     5    20    11    1
     6    11    12   ar
     7    12    13   ar
     8    13    14   ar
     9    14     1    1
    10     1     2   ar
    11     2     3   ar
    12     3     4   ar
    13     4     5   ar
    14     5     6   ar
    15     6    22    1
    16    22    23    1
    17    23    24    1
    18    24    25    1
    19    25    26    1
    20    26    27    1
    21    27    28    1
    22    28    29    1
    23     6     7   ar
    24     7     8   ar
    25     8     9   ar
    26     9    10   ar
    27    14    15   ar
    28    20    21   ar
    29    21    17   ar
    30    15    11   ar
    31    10     1   ar
    32     9     4   ar
    33    28    24    1
@<TRIPOS>MOLECULE
*****
 29 33 0 0 0
SMALL
GASTEIGER

@<TRIPOS>ATOM
      1 C         140.8123  138.5918  162.8882 C.ar    1  UNL1        0.0872
      2 C         142.2681  138.2385  162.8116 C.ar    1  UNL1        0.0197
      3 C         142.9102  137.9892  161.4791 C.ar    1  UNL1        0.0030
      4 C         142.0965  138.0931  160.2233 C.ar    1  UNL1        0.0174
      5 C         142.7386  137.8437  158.8907 C.ar    1  UNL1       -0.0027
      6 C         141.9250  137.9477  157.6349 C.ar    1  UNL1       -0.0207
      7 C         140.4691  138.3009  157.7116 C.ar    1  UNL1       -0.0027
      8 C         139.8270  138.5502  159.0440 C.ar    1  UNL1        0.0188
      9 C         140.6407  138.4463  160.2999 C.ar    1  UNL1        0.0812
     10 N         139.9986  138.6957  161.6323 N.ar    1  UNL1       -0.2449
     11 C         139.6994  139.7462  166.4229 C.ar    1  UNL1        0.0355
     12 C         138.6646  138.7036  166.1194 C.ar    1  UNL1        0.0075
     13 C         138.9555  138.1442  164.7583 C.ar    1  UNL1        0.0085
     14 C         140.1701  138.8411  164.2207 C.ar    1  UNL1        0.0471
     15 S         140.6299  139.8312  165.2495 S.2     1  UNL1       -0.0849
     16 C         140.7636  143.6563  169.8080 C.3     1  UNL1        0.0382
     17 C         140.2773  142.3581  169.2353 C.ar    1  UNL1        0.0076
     18 C         139.5721  141.2705  169.9902 C.ar    1  UNL1        0.0027
     19 C         139.2698  140.1598  169.0285 C.ar    1  UNL1        0.0072
     20 C         139.7882  140.5608  167.6793 C.ar    1  UNL1        0.0351
     21 S         140.4108  141.9194  167.8070 S.2     1  UNL1       -0.0908
     22 C         142.5671  137.6983  156.3024 C.3     1  UNL1        0.0437
     23 C         143.6236  136.6424  156.1648 C.3     1  UNL1        0.0768
     24 N         143.2452  135.1918  156.2158 N.3     1  UNL1       -0.2737
     25 C         143.5151  134.2496  157.3513 C.3     1  UNL1        0.0721
     26 C         142.9673  132.9042  156.9775 C.3     1  UNL1        0.0187
     27 C         142.3588  133.0149  155.6109 C.3     1  UNL1        0.0174
     28 C         142.5307  134.4287  155.1402 C.3     1  UNL1        0.0576
     29 C         142.0689  134.9822  153.8247 C.3     1  UNL1        0.0173
@<TRIPOS>BOND
     1    16    17    1
     2    17    18   ar
     3    18    19   ar
     4    19    20   ar
     5    20    11    1
     6    11    12   ar
     7    12    13   ar
     8    13    14   ar
     9    14     1    1
    10     1     2   ar
    11     2     3   ar
    12     3     4   ar
    13     4     5   ar
    14     5     6   ar
    15     6    22    1
    16    22    23    1
    17    23    24    1
    18    24    25    1
    19    25    26    1
    20    26    27    1
    21    27    28    1
    22    28    29    1
    23     6     7   ar
    24     7     8   ar
    25     8     9   ar
    26     9    10   ar
    27    14    15   ar
    28    20    21   ar
    29    21    17   ar
    30    15    11   ar
    31    10     1   ar
    32     9     4   ar
    33    28    24    1
@<TRIPOS>MOLECULE
*****
 29 33 0 0 0
SMALL
GASTEIGER

@<TRIPOS>ATOM
      1 C         141.2015  138.3239  159.5458 C.ar    1  UNL1        0.0872
      2 C         139.7205  138.5464  159.4620 C.ar    1  UNL1        0.0197
      3 C         138.8750  138.4393  160.6963 C.ar    1  UNL1        0.0030
      4 C         139.5105  138.1097  162.0145 C.ar    1  UNL1        0.0174
      5 C         138.6649  138.0027  163.2489 C.ar    1  UNL1       -0.0027
      6 C         139.3004  137.6730  164.5670 C.ar    1  UNL1       -0.0207
      7 C         140.7814  137.4505  164.6508 C.ar    1  UNL1       -0.0027
      8 C         141.6269  137.5576  163.4164 C.ar    1  UNL1        0.0188
      9 C         140.9914  137.8872  162.0983 C.ar    1  UNL1        0.0812
     10 N         141.8370  137.9943  160.8640 N.ar    1  UNL1       -0.2449
     11 C         143.6201  139.2512  156.6551 C.ar    1  UNL1        0.0355
     12 C         143.0764  137.9404  156.1690 C.ar    1  UNL1        0.0075
     13 C         142.1043  137.4335  157.1927 C.ar    1  UNL1        0.0085
     14 C         142.0470  138.4310  158.3115 C.ar    1  UNL1        0.0471
     15 S         142.9839  139.5544  157.9792 S.2     1  UNL1       -0.0849
     16 C         147.3295  142.8778  155.6711 C.3     1  UNL1        0.0382
     17 C         146.3287  141.7752  155.4900 C.ar    1  UNL1        0.0076
     18 C         146.0074  141.0792  154.2007 C.ar    1  UNL1        0.0027
     19 C         144.9536  140.0489  154.4803 C.ar    1  UNL1        0.0072
     20 C         144.6237  140.1083  155.9423 C.ar    1  UNL1        0.0351
     21 S         145.4735  141.1752  156.5664 S.2     1  UNL1       -0.0908
     22 C         138.4549  137.5659  165.8013 C.3     1  UNL1        0.0437
     23 C         138.0540  138.8051  166.5457 C.3     1  UNL1        0.0768
     24 N         139.0257  139.9379  166.6946 N.3     1  UNL1       -0.2737
     25 C         140.0439  140.0884  167.7858 C.3     1  UNL1        0.0721
     26 C         140.7974  141.3627  167.5442 C.3     1  UNL1        0.0187
     27 C         140.2449  141.9998  166.3036 C.3     1  UNL1        0.0174
     28 C         139.1500  141.1192  165.7786 C.3     1  UNL1        0.0576
     29 C         138.3242  141.3750  164.5528 C.3     1  UNL1        0.0173
@<TRIPOS>BOND
     1    16    17    1
     2    17    18   ar
     3    18    19   ar
     4    19    20   ar
     5    20    11    1
     6    11    12   ar
     7    12    13   ar
     8    13    14   ar
     9    14     1    1
    10     1     2   ar
    11     2     3   ar
    12     3     4   ar
    13     4     5   ar
    14     5     6   ar
    15     6    22    1
    16    22    23    1
    17    23    24    1
    18    24    25    1
    19    25    26    1
    20    26    27    1
    21    27    28    1
    22    28    29    1
    23     6     7   ar
    24     7     8   ar
    25     8     9   ar
    26     9    10   ar
    27    14    15   ar
    28    20    21   ar
    29    21    17   ar
    30    15    11   ar
    31    10     1   ar
    32     9     4   ar
    33    28    24    1
@<TRIPOS>MOLECULE
*****
 29 33 0 0 0
SMALL
GASTEIGER

@<TRIPOS>ATOM
      1 C         142.8125  138.3912  159.8383 C.ar    1  UNL1        0.0872
      2 C         143.9451  139.2724  160.2749 C.ar    1  UNL1        0.0197
      3 C         144.1959  139.5028  161.7356 C.ar    1  UNL1        0.0030
      4 C         143.3142  138.8520  162.7599 C.ar    1  UNL1        0.0174
      5 C         143.5651  139.0825  164.2207 C.ar    1  UNL1       -0.0027
      6 C         142.6834  138.4317  165.2449 C.ar    1  UNL1       -0.0207
      7 C         141.5508  137.5504  164.8083 C.ar    1  UNL1       -0.0027
      8 C         141.2999  137.3200  163.3475 C.ar    1  UNL1        0.0188
      9 C         142.1816  137.9708  162.3233 C.ar    1  UNL1        0.0812
     10 N         141.9307  137.7404  160.8625 N.ar    1  UNL1       -0.2449
     11 C         142.2953  137.0718  156.2248 C.ar    1  UNL1        0.0355
     12 C         142.0556  138.5402  156.0343 C.ar    1  UNL1        0.0075
     13 C         142.2201  139.2132  157.3647 C.ar    1  UNL1        0.0085
     14 C         142.5615  138.1607  158.3775 C.ar    1  UNL1        0.0471
     15 S         142.6080  136.8372  157.6729 S.2     1  UNL1       -0.0849
     16 C         142.6477  132.4480  153.6997 C.3     1  UNL1        0.0382
     17 C         142.3952  133.8969  153.9943 C.ar    1  UNL1        0.0076
     18 C         141.8802  134.9174  153.0231 C.ar    1  UNL1        0.0027
     19 C         141.7801  136.2309  153.7404 C.ar    1  UNL1        0.0072
     20 C         142.2332  136.0222  155.1550 C.ar    1  UNL1        0.0351
     21 S         142.6134  134.5797  155.3120 S.2     1  UNL1       -0.0908
     22 C         142.9343  138.6621  166.7057 C.3     1  UNL1        0.0437
     23 C         142.5774  139.9788  167.3295 C.3     1  UNL1        0.0768
     24 N         141.4602  140.0577  168.3273 N.3     1  UNL1       -0.2737
     25 C         141.6097  140.0608  169.8199 C.3     1  UNL1        0.0721
     26 C         140.2393  140.1524  170.4228 C.3     1  UNL1        0.0187
     27 C         139.2428  140.2058  169.3029 C.3     1  UNL1        0.0174
     28 C         139.9974  140.1472  168.0078 C.3     1  UNL1        0.0576
     29 C         139.3949  140.1736  166.6344 C.3     1  UNL1        0.0173
@<TRIPOS>BOND
     1    16    17    1
     2    17    18   ar
     3    18    19   ar
     4    19    20   ar
     5    20    11    1
     6    11    12   ar
     7    12    13   ar
     8    13    14   ar
     9    14     1    1
    10     1     2   ar
    11     2     3   ar
    12     3     4   ar
    13     4     5   ar
    14     5     6   ar
    15     6    22    1
    16    22    23    1
    17    23    24    1
    18    24    25    1
    19    25    26    1
    20    26    27    1
    21    27    28    1
    22    28    29    1
    23     6     7   ar
    24     7     8   ar
    25     8     9   ar
    26     9    10   ar
    27    14    15   ar
    28    20    21   ar
    29    21    17   ar
    30    15    11   ar
    31    10     1   ar
    32     9     4   ar
    33    28    24    1
@<TRIPOS>MOLECULE
*****
 29 33 0 0 0
SMALL
GASTEIGER

@<TRIPOS>ATOM
      1 C         139.5613  139.0115  163.5653 C.ar    1  UNL1        0.0872
      2 C         138.4006  139.0626  162.6166 C.ar    1  UNL1        0.0197
      3 C         138.6154  138.8078  161.1542 C.ar    1  UNL1        0.0030
      4 C         139.9911  138.5018  160.6404 C.ar    1  UNL1        0.0174
      5 C         140.2059  138.2470  159.1778 C.ar    1  UNL1       -0.0027
      6 C         141.5816  137.9411  158.6640 C.ar    1  UNL1       -0.0207
      7 C         142.7424  137.8900  159.6128 C.ar    1  UNL1       -0.0027
      8 C         142.5275  138.1448  161.0752 C.ar    1  UNL1        0.0188
      9 C         141.1518  138.4507  161.5890 C.ar    1  UNL1        0.0812
     10 N         140.9370  138.7056  163.0515 N.ar    1  UNL1       -0.2449
     11 C         139.6240  140.0975  167.2912 C.ar    1  UNL1        0.0355
     12 C         138.4079  139.2196  167.2656 C.ar    1  UNL1        0.0075
     13 C         138.2364  138.7060  165.8667 C.ar    1  UNL1        0.0085
     14 C         139.3465  139.2664  165.0278 C.ar    1  UNL1        0.0471
     15 S         140.2040  140.1264  165.9082 S.2     1  UNL1       -0.0849
     16 C         142.6853  143.0623  170.4085 C.3     1  UNL1        0.0382
     17 C         141.5721  142.1824  169.9223 C.ar    1  UNL1        0.0076
     18 C         140.4227  141.6794  170.7444 C.ar    1  UNL1        0.0027
     19 C         139.5530  140.8371  169.8589 C.ar    1  UNL1        0.0072
     20 C         140.1649  140.8196  168.4895 C.ar    1  UNL1        0.0351
     21 S         141.4128  141.6511  168.5287 S.2     1  UNL1       -0.0908
     22 C         141.7965  137.6862  157.2016 C.3     1  UNL1        0.0437
     23 C         142.8313  136.6954  156.7570 C.3     1  UNL1        0.0768
     24 N         142.4120  135.3384  156.2748 N.3     1  UNL1       -0.2737
     25 C         141.4100  135.0572  155.1945 C.3     1  UNL1        0.0721
     26 C         141.2998  133.5692  155.0404 C.3     1  UNL1        0.0187
     27 C         142.2337  132.9308  156.0255 C.3     1  UNL1        0.0174
     28 C         142.9210  134.0242  156.7884 C.3     1  UNL1        0.0576
     29 C         143.9387  133.8363  157.8742 C.3     1  UNL1        0.0173
@<TRIPOS>BOND
     1    16    17    1
     2    17    18   ar
     3    18    19   ar
     4    19    20   ar
     5    20    11    1
     6    11    12   ar
     7    12    13   ar
     8    13    14   ar
     9    14     1    1
    10     1     2   ar
    11     2     3   ar
    12     3     4   ar
    13     4     5   ar
    14     5     6   ar
    15     6    22    1
    16    22    23    1
    17    23    24    1
    18    24    25    1
    19    25    26    1
    20    26    27    1
    21    27    28    1
    22    28    29    1
    23     6     7   ar
    24     7     8   ar
    25     8     9   ar
    26     9    10   ar
    27    14    15   ar
    28    20    21   ar
    29    21    17   ar
    30    15    11   ar
    31    10     1   ar
    32     9     4   ar
    33    28    24    1
@<TRIPOS>MOLECULE
*****
 29 33 0 0 0
SMALL
GASTEIGER

@<TRIPOS>ATOM
      1 C         142.8011  138.7332  158.6679 C.ar    1  UNL1        0.0872
      2 C         143.1110  140.1468  158.2735 C.ar    1  UNL1        0.0197
      3 C         143.7063  141.0915  159.2750 C.ar    1  UNL1        0.0030
      4 C         143.9917  140.6226  160.6709 C.ar    1  UNL1        0.0174
      5 C         144.5870  141.5674  161.6725 C.ar    1  UNL1       -0.0027
      6 C         144.8724  141.0984  163.0684 C.ar    1  UNL1       -0.0207
      7 C         144.5625  139.6847  163.4628 C.ar    1  UNL1       -0.0027
      8 C         143.9672  138.7400  162.4613 C.ar    1  UNL1        0.0188
      9 C         143.6818  139.2090  161.0654 C.ar    1  UNL1        0.0812
     10 N         143.0865  138.2643  160.0638 N.ar    1  UNL1       -0.2449
     11 C         141.9191  135.9267  156.1357 C.ar    1  UNL1        0.0355
     12 C         140.6603  136.7423  156.1146 C.ar    1  UNL1        0.0075
     13 C         140.8375  137.8929  157.0606 C.ar    1  UNL1        0.0085
     14 C         142.2057  137.7884  157.6663 C.ar    1  UNL1        0.0471
     15 S         142.8742  136.5732  157.0948 S.2     1  UNL1       -0.0849
     16 C         143.7527  131.2027  154.6520 C.3     1  UNL1        0.0382
     17 C         143.0201  132.5116  154.6560 C.ar    1  UNL1        0.0076
     18 C         142.1293  133.0267  153.5646 C.ar    1  UNL1        0.0027
     19 C         141.6084  134.3688  153.9861 C.ar    1  UNL1        0.0072
     20 C         142.1773  134.6830  155.3379 C.ar    1  UNL1        0.0351
     21 S         143.0498  133.5353  155.7520 S.2     1  UNL1       -0.0908
     22 C         145.4678  142.0431  164.0700 C.3     1  UNL1        0.0437
     23 C         144.5780  142.7816  165.0256 C.3     1  UNL1        0.0768
     24 N         143.4144  143.5736  164.5074 N.3     1  UNL1       -0.2737
     25 C         143.4716  144.9687  163.9591 C.3     1  UNL1        0.0721
     26 C         142.0818  145.3670  163.5594 C.3     1  UNL1        0.0187
     27 C         141.1656  144.2180  163.8607 C.3     1  UNL1        0.0174
     28 C         141.9892  143.1098  164.4466 C.3     1  UNL1        0.0576
     29 C         141.4775  141.7724  164.8933 C.3     1  UNL1        0.0173
@<TRIPOS>BOND
     1    16    17    1
     2    17    18   ar
     3    18    19   ar
     4    19    20   ar
     5    20    11    1
     6    11    12   ar
     7    12    13   ar
     8    13    14   ar
     9    14     1    1
    10     1     2   ar
    11     2     3   ar
    12     3     4   ar
    13     4     5   ar
    14     5     6   ar
    15     6    22    1
    16    22    23    1
    17    23    24    1
    18    24    25    1
    19    25    26    1
    20    26    27    1
    21    27    28    1
    22    28    29    1
    23     6     7   ar
    24     7     8   ar
    25     8     9   ar
    26     9    10   ar
    27    14    15   ar
    28    20    21   ar
    29    21    17   ar
    30    15    11   ar
    31    10     1   ar
    32     9     4   ar
    33    28    24    1
@<TRIPOS>MOLECULE
*****
 29 33 0 0 0
SMALL
GASTEIGER

@<TRIPOS>ATOM
      1 C         138.2908  141.8345  159.3113 C.ar    1  UNL1        0.0872
      2 C         138.4730  140.3461  159.3456 C.ar    1  UNL1        0.0197
      3 C         138.4910  139.6228  160.6596 C.ar    1  UNL1        0.0030
      4 C         138.3267  140.3881  161.9392 C.ar    1  UNL1        0.0174
      5 C         138.3447  139.6648  163.2532 C.ar    1  UNL1       -0.0027
      6 C         138.1804  140.4300  164.5329 C.ar    1  UNL1       -0.0207
      7 C         137.9982  141.9186  164.4985 C.ar    1  UNL1       -0.0027
      8 C         137.9803  142.6418  163.1845 C.ar    1  UNL1        0.0188
      9 C         138.1445  141.8765  161.9049 C.ar    1  UNL1        0.0812
     10 N         138.1265  142.5998  160.5909 N.ar    1  UNL1       -0.2449
     11 C         138.8403  144.0742  156.1891 C.ar    1  UNL1        0.0355
     12 C         137.6501  143.2676  155.7614 C.ar    1  UNL1        0.0075
     13 C         137.2994  142.3305  156.8789 C.ar    1  UNL1        0.0085
     14 C         138.2728  142.5578  157.9973 C.ar    1  UNL1        0.0471
     15 S         139.2251  143.6355  157.5709 S.2     1  UNL1       -0.0849
     16 C         140.0544  148.7237  154.0011 C.3     1  UNL1        0.0382
     17 C         140.0834  147.2706  154.3718 C.ar    1  UNL1        0.0076
     18 C         141.0756  146.2562  153.8854 C.ar    1  UNL1        0.0027
     19 C         140.7307  144.9354  154.5070 C.ar    1  UNL1        0.0072
     20 C         139.5254  145.1334  155.3775 C.ar    1  UNL1        0.0351
     21 S         139.1253  146.5766  155.2940 S.2     1  UNL1       -0.0908
     22 C         138.1984  139.7068  165.8468 C.3     1  UNL1        0.0437
     23 C         139.4725  139.6109  166.6328 C.3     1  UNL1        0.0768
     24 N         139.7288  140.5612  167.7647 N.3     1  UNL1       -0.2737
     25 C         139.3224  140.3595  169.1945 C.3     1  UNL1        0.0721
     26 C         139.7789  141.5537  169.9790 C.3     1  UNL1        0.0187
     27 C         140.4674  142.4935  169.0340 C.3     1  UNL1        0.0174
     28 C         140.4364  141.8800  167.6655 C.3     1  UNL1        0.0576
     29 C         141.0120  142.4801  166.4171 C.3     1  UNL1        0.0173
@<TRIPOS>BOND
     1    16    17    1
     2    17    18   ar
     3    18    19   ar
     4    19    20   ar
     5    20    11    1
     6    11    12   ar
     7    12    13   ar
     8    13    14   ar
     9    14     1    1
    10     1     2   ar
    11     2     3   ar
    12     3     4   ar
    13     4     5   ar
    14     5     6   ar
    15     6    22    1
    16    22    23    1
    17    23    24    1
    18    24    25    1
    19    25    26    1
    20    26    27    1
    21    27    28    1
    22    28    29    1
    23     6     7   ar
    24     7     8   ar
    25     8     9   ar
    26     9    10   ar
    27    14    15   ar
    28    20    21   ar
    29    21    17   ar
    30    15    11   ar
    31    10     1   ar
    32     9     4   ar
    33    28    24    1
@<TRIPOS>MOLECULE
*****
 29 33 0 0 0
SMALL
GASTEIGER

@<TRIPOS>ATOM
      1 C         140.3870  143.9522  160.1158 C.ar    1  UNL1        0.0872
      2 C         141.6873  143.2785  160.4403 C.ar    1  UNL1        0.0197
      3 C         141.9886  142.8700  161.8518 C.ar    1  UNL1        0.0030
      4 C         140.9895  143.1352  162.9388 C.ar    1  UNL1        0.0174
      5 C         141.2908  142.7266  164.3503 C.ar    1  UNL1       -0.0027
      6 C         140.2917  142.9918  165.4373 C.ar    1  UNL1       -0.0207
      7 C         138.9914  143.6655  165.1128 C.ar    1  UNL1       -0.0027
      8 C         138.6902  144.0740  163.7013 C.ar    1  UNL1        0.0188
      9 C         139.6892  143.8088  162.6143 C.ar    1  UNL1        0.0812
     10 N         139.3880  144.2174  161.2028 N.ar    1  UNL1       -0.2449
     11 C         139.7914  145.7003  156.7018 C.ar    1  UNL1        0.0355
     12 C         139.4529  144.2788  156.3626 C.ar    1  UNL1        0.0075
     13 C         139.6348  143.4510  157.6002 C.ar    1  UNL1        0.0085
     14 C         140.0858  144.3608  158.7043 C.ar    1  UNL1        0.0471
     15 S         140.1825  145.7509  158.1490 S.2     1  UNL1       -0.0849
     16 C         140.5688  148.7816  152.4851 C.3     1  UNL1        0.0382
     17 C         140.1040  148.2826  153.8211 C.ar    1  UNL1        0.0076
     18 C         139.2515  149.0385  154.7967 C.ar    1  UNL1        0.0027
     19 C         139.0306  148.1632  155.9946 C.ar    1  UNL1        0.0072
     20 C         139.7466  146.8663  155.7593 C.ar    1  UNL1        0.0351
     21 S         140.4100  146.9400  154.4160 S.2     1  UNL1       -0.0908
     22 C         140.5930  142.5832  166.8488 C.3     1  UNL1        0.0437
     23 C         140.0700  141.2818  167.3808 C.3     1  UNL1        0.0768
     24 N         139.8474  140.1265  166.4504 N.3     1  UNL1       -0.2737
     25 C         138.5188  139.6354  165.9566 C.3     1  UNL1        0.0721
     26 C         138.7645  138.4648  165.0515 C.3     1  UNL1        0.0187
     27 C         140.2450  138.2324  164.9859 C.3     1  UNL1        0.0174
     28 C         140.9142  139.2594  165.8505 C.3     1  UNL1        0.0576
     29 C         142.3910  139.3953  166.0755 C.3     1  UNL1        0.0173
@<TRIPOS>BOND
     1    16    17    1
     2    17    18   ar
     3    18    19   ar
     4    19    20   ar
     5    20    11    1
     6    11    12   ar
     7    12    13   ar
     8    13    14   ar
     9    14     1    1
    10     1     2   ar
    11     2     3   ar
    12     3     4   ar
    13     4     5   ar
    14     5     6   ar
    15     6    22    1
    16    22    23    1
    17    23    24    1
    18    24    25    1
    19    25    26    1
    20    26    27    1
    21    27    28    1
    22    28    29    1
    23     6     7   ar
    24     7     8   ar
    25     8     9   ar
    26     9    10   ar
    27    14    15   ar
    28    20    21   ar
    29    21    17   ar
    30    15    11   ar
    31    10     1   ar
    32     9     4   ar
    33    28    24    1
