@<TRIPOS>MOLECULE
*****
 32 36 0 0 0
SMALL
GASTEIGER

@<TRIPOS>ATOM
      1 N         140.4058  144.8119  160.1700 N.3     1  UNL1       -0.2710
      2 C         139.9980  145.6536  161.3427 C.3     1  UNL1        0.0728
      3 C         139.9268  145.0469  162.7127 C.3     1  UNL1        0.0298
      4 C         140.2634  143.5986  162.9099 C.3     1  UNL1        0.1147
      5 C         140.6712  142.7569  161.7372 C.3     1  UNL1        0.0298
      6 C         140.7424  143.3635  160.3672 C.3     1  UNL1        0.0728
      7 C         140.1922  142.9919  164.2800 C.2     1  UNL1        0.3507
      8 N         140.5523  143.6744  165.5663 N.2     1  UNL1       -0.0350
      9 C         140.3311  142.7005  166.6855 C.2     1  UNL1        0.2324
     10 C         140.5179  142.8173  168.1692 C.2     1  UNL1        0.0601
     11 C         140.2078  141.6497  169.0583 C.2     1  UNL1        0.0685
     12 C         139.7110  140.3654  168.4638 C.2     1  UNL1       -0.0069
     13 C         139.5242  140.2485  166.9800 C.3     1  UNL1        0.1044
     14 C         139.8343  141.4161  166.0908 C.2     1  UNL1        0.2175
     15 N         139.7484  141.5962  164.6042 N.2     1  UNL1       -0.0389
     16 C         140.3946  141.7665  170.5420 C.1     1  UNL1        0.1002
     17 N         140.5813  141.8833  172.0258 N.1     1  UNL1       -0.1908
     18 C         140.4770  145.4186  158.8000 C.3     1  UNL1        0.0970
     19 C         140.5167  144.5341  157.5892 C.3     1  UNL1        0.1264
     20 C         137.6722  141.0472  157.5995 C.ar    1  UNL1        0.1593
     21 C         136.5115  141.0233  156.6497 C.ar    1  UNL1        0.1357
     22 N         136.2990  142.1618  155.6964 N.ar    1  UNL1       -0.2392
     23 C         137.2471  143.3241  155.6930 C.ar    1  UNL1        0.0975
     24 C         137.0345  144.4626  154.7397 C.ar    1  UNL1        0.0255
     25 C         137.9827  145.6249  154.7363 C.ar    1  UNL1        0.0623
     26 C         139.1435  145.6487  155.6861 C.ar    1  UNL1        0.2611
     27 O         140.0916  146.8110  155.6826 O.2     1  UNL1       -0.2670
     28 N         139.3560  144.5103  156.6394 N.ar    1  UNL1       -0.2926
     29 C         138.4078  143.3479  156.6428 C.ar    1  UNL1        0.0832
     30 C         138.6204  142.2094  157.5960 C.ar    1  UNL1        0.0573
     31 C         139.1304  139.8511  159.3864 C.3     1  UNL1        0.2525
     32 O         137.8848  139.9087  158.5528 O.3     1  UNL1       -0.4698
@<TRIPOS>BOND
     1    31    32    1
     2    32    20    1
     3    20    21   ar
     4    21    22   ar
     5    22    23   ar
     6    23    24   ar
     7    24    25   ar
     8    25    26   ar
     9    26    27    2
    10    26    28   ar
    11    28    19    1
    12    19    18    1
    13    18     1    1
    14     1     2    1
    15     2     3    1
    16     3     4    1
    17     4     7    1
    18     7     8    2
    19     8     9    1
    20     9    10    2
    21    10    11    1
    22    11    16    1
    23    16    17    3
    24    11    12    2
    25    12    13    1
    26    13    14    1
    27    14    15    2
    28     4     5    1
    29     5     6    1
    30    28    29   ar
    31    29    30   ar
    32    30    20   ar
    33    29    23   ar
    34     6     1    1
    35    15     7    1
    36    14     9    1
@<TRIPOS>MOLECULE
*****
 32 36 0 0 0
SMALL
GASTEIGER

@<TRIPOS>ATOM
      1 N         140.6924  143.2001  165.4845 N.3     1  UNL1       -0.2710
      2 C         139.4855  143.7164  164.7587 C.3     1  UNL1        0.0728
      3 C         139.5953  144.1312  163.3214 C.3     1  UNL1        0.0298
      4 C         140.9119  144.0298  162.6100 C.3     1  UNL1        0.1147
      5 C         142.1188  143.5135  163.3359 C.3     1  UNL1        0.0298
      6 C         142.0090  143.0986  164.7732 C.3     1  UNL1        0.0728
      7 C         141.0218  144.4447  161.1727 C.2     1  UNL1        0.3507
      8 N         140.0633  145.3323  160.4355 N.2     1  UNL1       -0.0350
      9 C         140.5584  145.4810  159.0274 C.2     1  UNL1        0.2324
     10 C         140.0213  146.2382  157.8493 C.2     1  UNL1        0.0601
     11 C         140.7487  146.1996  156.5380 C.2     1  UNL1        0.0685
     12 C         142.0132  145.4038  156.4049 C.2     1  UNL1       -0.0069
     13 C         142.5504  144.6466  157.5831 C.3     1  UNL1        0.1044
     14 C         141.8230  144.6852  158.8944 C.2     1  UNL1        0.2175
     15 N         142.1093  144.0448  160.2202 N.2     1  UNL1       -0.0389
     16 C         140.2115  146.9567  155.3598 C.1     1  UNL1        0.1002
     17 N         139.6744  147.7139  154.1815 N.1     1  UNL1       -0.1908
     18 C         140.5825  142.7852  166.9219 C.3     1  UNL1        0.0970
     19 C         140.2754  141.3587  167.2694 C.3     1  UNL1        0.1264
     20 C         139.1458  139.2340  163.4668 C.ar    1  UNL1        0.1593
     21 C         140.0130  138.1300  162.9385 C.ar    1  UNL1        0.1357
     22 N         141.2568  137.7342  163.6778 N.ar    1  UNL1       -0.2392
     23 C         141.6333  138.4424  164.9453 C.ar    1  UNL1        0.0975
     24 C         142.8770  138.0466  165.6845 C.ar    1  UNL1        0.0255
     25 C         143.2536  138.7548  166.9520 C.ar    1  UNL1        0.0623
     26 C         142.3864  139.8589  167.4804 C.ar    1  UNL1        0.2611
     27 O         142.7629  140.5671  168.7479 O.2     1  UNL1       -0.2670
     28 N         141.1426  140.2547  166.7411 N.ar    1  UNL1       -0.2926
     29 C         140.7661  139.5464  165.4735 C.ar    1  UNL1        0.0832
     30 C         139.5224  139.9422  164.7343 C.ar    1  UNL1        0.0573
     31 C         137.3502  141.0165  162.8768 C.3     1  UNL1        0.2525
     32 O         137.9021  139.6298  162.7275 O.3     1  UNL1       -0.4698
@<TRIPOS>BOND
     1    31    32    1
     2    32    20    1
     3    20    21   ar
     4    21    22   ar
     5    22    23   ar
     6    23    24   ar
     7    24    25   ar
     8    25    26   ar
     9    26    27    2
    10    26    28   ar
    11    28    19    1
    12    19    18    1
    13    18     1    1
    14     1     2    1
    15     2     3    1
    16     3     4    1
    17     4     7    1
    18     7     8    2
    19     8     9    1
    20     9    10    2
    21    10    11    1
    22    11    16    1
    23    16    17    3
    24    11    12    2
    25    12    13    1
    26    13    14    1
    27    14    15    2
    28     4     5    1
    29     5     6    1
    30    28    29   ar
    31    29    30   ar
    32    30    20   ar
    33    29    23   ar
    34     6     1    1
    35    15     7    1
    36    14     9    1
@<TRIPOS>MOLECULE
*****
 32 36 0 0 0
SMALL
GASTEIGER

@<TRIPOS>ATOM
      1 N         142.4942  142.9083  164.5213 N.3     1  UNL1       -0.2710
      2 C         143.4550  142.8173  163.3731 C.3     1  UNL1        0.0728
      3 C         143.0169  143.2161  161.9951 C.3     1  UNL1        0.0298
      4 C         141.6179  143.7060  161.7653 C.3     1  UNL1        0.1147
      5 C         140.6571  143.7970  162.9136 C.3     1  UNL1        0.0298
      6 C         141.0952  143.3982  164.2916 C.3     1  UNL1        0.0728
      7 C         141.1797  144.1048  160.3873 C.2     1  UNL1        0.3507
      8 N         141.6539  145.3062  159.6245 N.2     1  UNL1       -0.0350
      9 C         140.9577  145.3162  158.2959 C.2     1  UNL1        0.2324
     10 C         141.0305  146.2592  157.1317 C.2     1  UNL1        0.0601
     11 C         140.1988  146.0070  155.9091 C.2     1  UNL1        0.0685
     12 C         139.2944  144.8118  155.8507 C.2     1  UNL1       -0.0069
     13 C         139.2216  143.8687  157.0150 C.3     1  UNL1        0.1044
     14 C         140.0533  144.1209  158.2375 C.2     1  UNL1        0.2175
     15 N         140.1905  143.3723  159.5301 N.2     1  UNL1       -0.0389
     16 C         140.2716  146.9500  154.7449 C.1     1  UNL1        0.1002
     17 N         140.3444  147.8931  153.5806 N.1     1  UNL1       -0.1908
     18 C         142.9324  142.5095  165.8994 C.3     1  UNL1        0.0970
     19 C         142.6799  141.1156  166.3926 C.3     1  UNL1        0.1264
     20 C         138.8865  138.8585  165.5177 C.ar    1  UNL1        0.1593
     21 C         137.8873  138.6190  166.6105 C.ar    1  UNL1        0.1357
     22 N         138.1526  139.1319  167.9949 N.ar    1  UNL1       -0.2392
     23 C         139.4170  139.8842  168.2866 C.ar    1  UNL1        0.0975
     24 C         139.6823  140.3970  169.6710 C.ar    1  UNL1        0.0255
     25 C         140.9468  141.1494  169.9626 C.ar    1  UNL1        0.0623
     26 C         141.9460  141.3889  168.8698 C.ar    1  UNL1        0.2611
     27 O         143.2105  142.1412  169.1614 O.2     1  UNL1       -0.2670
     28 N         141.6808  140.8761  167.4854 N.ar    1  UNL1       -0.2926
     29 C         140.4162  140.1237  167.1938 C.ar    1  UNL1        0.0832
     30 C         140.1509  139.6109  165.8094 C.ar    1  UNL1        0.0573
     31 C         138.4367  139.3096  162.9990 C.3     1  UNL1        0.2525
     32 O         138.6212  138.3457  164.1333 O.3     1  UNL1       -0.4698
@<TRIPOS>BOND
     1    31    32    1
     2    32    20    1
     3    20    21   ar
     4    21    22   ar
     5    22    23   ar
     6    23    24   ar
     7    24    25   ar
     8    25    26   ar
     9    26    27    2
    10    26    28   ar
    11    28    19    1
    12    19    18    1
    13    18     1    1
    14     1     2    1
    15     2     3    1
    16     3     4    1
    17     4     7    1
    18     7     8    2
    19     8     9    1
    20     9    10    2
    21    10    11    1
    22    11    16    1
    23    16    17    3
    24    11    12    2
    25    12    13    1
    26    13    14    1
    27    14    15    2
    28     4     5    1
    29     5     6    1
    30    28    29   ar
    31    29    30   ar
    32    30    20   ar
    33    29    23   ar
    34     6     1    1
    35    15     7    1
    36    14     9    1
@<TRIPOS>MOLECULE
*****
 32 36 0 0 0
SMALL
GASTEIGER

@<TRIPOS>ATOM
      1 N         142.6235  138.2971  160.2106 N.3     1  UNL1       -0.2710
      2 C         143.9118  138.7604  160.8235 C.3     1  UNL1        0.0728
      3 C         143.9471  139.1903  162.2601 C.3     1  UNL1        0.0298
      4 C         142.6940  139.1569  163.0838 C.3     1  UNL1        0.1147
      5 C         141.4057  138.6935  162.4710 C.3     1  UNL1        0.0298
      6 C         141.3705  138.2636  161.0344 C.3     1  UNL1        0.0728
      7 C         142.7292  139.5868  164.5205 C.2     1  UNL1        0.3507
      8 N         142.8698  140.9956  165.0161 N.2     1  UNL1       -0.0350
      9 C         142.8574  140.9629  166.5157 C.2     1  UNL1        0.2324
     10 C         142.9620  142.0497  167.5442 C.2     1  UNL1        0.0601
     11 C         142.9183  141.7075  169.0040 C.2     1  UNL1        0.0685
     12 C         142.7701  140.2785  169.4352 C.2     1  UNL1       -0.0069
     13 C         142.6655  139.1916  168.4067 C.3     1  UNL1        0.1044
     14 C         142.7092  139.5338  166.9469 C.2     1  UNL1        0.2175
     15 N         142.6299  138.6834  165.7138 N.2     1  UNL1       -0.0389
     16 C         143.0229  142.7943  170.0325 C.1     1  UNL1        0.1002
     17 N         143.1275  143.8811  171.0611 N.1     1  UNL1       -0.1908
     18 C         142.5884  137.8672  158.7739 C.3     1  UNL1        0.0970
     19 C         142.2414  138.8583  157.7028 C.3     1  UNL1        0.1264
     20 C         141.0277  142.7768  159.5527 C.ar    1  UNL1        0.1593
     21 C         141.8793  143.9955  159.3543 C.ar    1  UNL1        0.1357
     22 N         143.1355  143.9081  158.5392 N.ar    1  UNL1       -0.2392
     23 C         143.5401  142.6020  157.9225 C.ar    1  UNL1        0.0975
     24 C         144.7963  142.5146  157.1075 C.ar    1  UNL1        0.0255
     25 C         145.2008  141.2085  156.4908 C.ar    1  UNL1        0.0623
     26 C         144.3492  139.9896  156.6892 C.ar    1  UNL1        0.2611
     27 O         144.7538  138.6835  156.0726 O.2     1  UNL1       -0.2670
     28 N         143.0930  140.0770  157.5043 N.ar    1  UNL1       -0.2926
     29 C         142.6885  141.3833  158.1210 C.ar    1  UNL1        0.0832
     30 C         141.4323  141.4707  158.9361 C.ar    1  UNL1        0.0573
     31 C         139.7073  143.7847  161.5504 C.3     1  UNL1        0.2525
     32 O         139.7715  142.8642  160.3678 O.3     1  UNL1       -0.4698
@<TRIPOS>BOND
     1    31    32    1
     2    32    20    1
     3    20    21   ar
     4    21    22   ar
     5    22    23   ar
     6    23    24   ar
     7    24    25   ar
     8    25    26   ar
     9    26    27    2
    10    26    28   ar
    11    28    19    1
    12    19    18    1
    13    18     1    1
    14     1     2    1
    15     2     3    1
    16     3     4    1
    17     4     7    1
    18     7     8    2
    19     8     9    1
    20     9    10    2
    21    10    11    1
    22    11    16    1
    23    16    17    3
    24    11    12    2
    25    12    13    1
    26    13    14    1
    27    14    15    2
    28     4     5    1
    29     5     6    1
    30    28    29   ar
    31    29    30   ar
    32    30    20   ar
    33    29    23   ar
    34     6     1    1
    35    15     7    1
    36    14     9    1
@<TRIPOS>MOLECULE
*****
 32 36 0 0 0
SMALL
GASTEIGER

@<TRIPOS>ATOM
      1 N         140.2905  139.6485  162.8811 N.3     1  UNL1       -0.2710
      2 C         141.1141  139.8030  161.6370 C.3     1  UNL1        0.0728
      3 C         140.4747  140.2878  160.3697 C.3     1  UNL1        0.0298
      4 C         139.0117  140.6181  160.3465 C.3     1  UNL1        0.1147
      5 C         138.1881  140.4636  161.5906 C.3     1  UNL1        0.0298
      6 C         138.8275  139.9788  162.8579 C.3     1  UNL1        0.0728
      7 C         138.3723  141.1029  159.0792 C.2     1  UNL1        0.3507
      8 N         137.4222  140.3252  158.2174 N.2     1  UNL1       -0.0350
      9 C         137.0334  141.1921  157.0567 C.2     1  UNL1        0.2324
     10 C         136.1248  140.9552  155.8870 C.2     1  UNL1        0.0601
     11 C         135.9259  142.0318  154.8617 C.2     1  UNL1        0.0685
     12 C         136.6356  143.3453  155.0061 C.2     1  UNL1       -0.0069
     13 C         137.5442  143.5823  156.1758 C.3     1  UNL1        0.1044
     14 C         137.7431  142.5057  157.2011 C.2     1  UNL1        0.2175
     15 N         138.5706  142.4506  158.4511 N.2     1  UNL1       -0.0389
     16 C         135.0173  141.7948  153.6920 C.1     1  UNL1        0.1002
     17 N         134.1086  141.5579  152.5222 N.1     1  UNL1       -0.1908
     18 C         140.9299  139.1637  164.1485 C.3     1  UNL1        0.0970
     19 C         141.5492  140.1450  165.0991 C.3     1  UNL1        0.1264
     20 C         140.7972  144.4553  164.0476 C.ar    1  UNL1        0.1593
     21 C         141.9316  145.3254  163.5938 C.ar    1  UNL1        0.1357
     22 N         143.3166  144.7589  163.4905 N.ar    1  UNL1       -0.2392
     23 C         143.5673  143.3221  163.8410 C.ar    1  UNL1        0.0975
     24 C         144.9523  142.7555  163.7376 C.ar    1  UNL1        0.0255
     25 C         145.2030  141.3188  164.0881 C.ar    1  UNL1        0.0623
     26 C         144.0686  140.4485  164.5420 C.ar    1  UNL1        0.2611
     27 O         144.3193  139.0118  164.8924 O.2     1  UNL1       -0.2670
     28 N         142.6836  141.0151  164.6453 N.ar    1  UNL1       -0.2926
     29 C         142.4329  142.4520  164.2948 C.ar    1  UNL1        0.0832
     30 C         141.0479  143.0185  164.3981 C.ar    1  UNL1        0.0573
     31 C         138.6576  144.9269  165.4438 C.3     1  UNL1        0.2525
     32 O         139.4122  145.0219  164.1509 O.3     1  UNL1       -0.4698
@<TRIPOS>BOND
     1    31    32    1
     2    32    20    1
     3    20    21   ar
     4    21    22   ar
     5    22    23   ar
     6    23    24   ar
     7    24    25   ar
     8    25    26   ar
     9    26    27    2
    10    26    28   ar
    11    28    19    1
    12    19    18    1
    13    18     1    1
    14     1     2    1
    15     2     3    1
    16     3     4    1
    17     4     7    1
    18     7     8    2
    19     8     9    1
    20     9    10    2
    21    10    11    1
    22    11    16    1
    23    16    17    3
    24    11    12    2
    25    12    13    1
    26    13    14    1
    27    14    15    2
    28     4     5    1
    29     5     6    1
    30    28    29   ar
    31    29    30   ar
    32    30    20   ar
    33    29    23   ar
    34     6     1    1
    35    15     7    1
    36    14     9    1
@<TRIPOS>MOLECULE
*****
 32 36 0 0 0
SMALL
GASTEIGER

@<TRIPOS>ATOM
      1 N         141.8390  141.4035  159.7300 N.3     1  UNL1       -0.2710
      2 C         143.1916  140.9570  159.2597 C.3     1  UNL1        0.0728
      3 C         143.3436  139.6432  158.5520 C.3     1  UNL1        0.0298
      4 C         142.1430  138.7760  158.3146 C.3     1  UNL1        0.1147
      5 C         140.7904  139.2225  158.7850 C.3     1  UNL1        0.0298
      6 C         140.6384  140.5362  159.4927 C.3     1  UNL1        0.0728
      7 C         142.2949  137.4621  157.6069 C.2     1  UNL1        0.3507
      8 N         143.3493  136.4306  157.8794 N.2     1  UNL1       -0.0350
      9 C         143.1252  135.2801  156.9434 C.2     1  UNL1        0.2324
     10 C         143.8532  133.9821  156.7560 C.2     1  UNL1        0.0601
     11 C         143.3883  133.0046  155.7176 C.2     1  UNL1        0.0685
     12 C         142.1955  133.3251  154.8665 C.2     1  UNL1       -0.0069
     13 C         141.4674  134.6232  155.0538 C.3     1  UNL1        0.1044
     14 C         141.9323  135.6007  156.0923 C.2     1  UNL1        0.2175
     15 N         141.4192  136.9492  156.5023 N.2     1  UNL1       -0.0389
     16 C         144.1163  131.7066  155.5302 C.1     1  UNL1        0.1002
     17 N         144.8444  130.4085  155.3428 N.1     1  UNL1       -0.1908
     18 C         141.6871  142.7173  160.4378 C.3     1  UNL1        0.0970
     19 C         141.7762  142.7779  161.9339 C.3     1  UNL1        0.1264
     20 C         141.1037  138.7558  163.8366 C.ar    1  UNL1        0.1593
     21 C         142.2288  138.0659  164.5495 C.ar    1  UNL1        0.1357
     22 N         143.5780  138.7167  164.6282 N.ar    1  UNL1       -0.2392
     23 C         143.8021  140.0573  163.9940 C.ar    1  UNL1        0.0975
     24 C         145.1513  140.7081  164.0727 C.ar    1  UNL1        0.0255
     25 C         145.3755  142.0488  163.4384 C.ar    1  UNL1        0.0623
     26 C         144.2504  142.7388  162.7255 C.ar    1  UNL1        0.2611
     27 O         144.4746  144.0794  162.0913 O.2     1  UNL1       -0.2670
     28 N         142.9012  142.0880  162.6468 N.ar    1  UNL1       -0.2926
     29 C         142.6771  140.7473  163.2811 C.ar    1  UNL1        0.0832
     30 C         141.3279  140.0965  163.2024 C.ar    1  UNL1        0.0573
     31 C         139.0192  138.0589  162.4514 C.3     1  UNL1        0.2525
     32 O         139.7545  138.1051  163.7580 O.3     1  UNL1       -0.4698
@<TRIPOS>BOND
     1    31    32    1
     2    32    20    1
     3    20    21   ar
     4    21    22   ar
     5    22    23   ar
     6    23    24   ar
     7    24    25   ar
     8    25    26   ar
     9    26    27    2
    10    26    28   ar
    11    28    19    1
    12    19    18    1
    13    18     1    1
    14     1     2    1
    15     2     3    1
    16     3     4    1
    17     4     7    1
    18     7     8    2
    19     8     9    1
    20     9    10    2
    21    10    11    1
    22    11    16    1
    23    16    17    3
    24    11    12    2
    25    12    13    1
    26    13    14    1
    27    14    15    2
    28     4     5    1
    29     5     6    1
    30    28    29   ar
    31    29    30   ar
    32    30    20   ar
    33    29    23   ar
    34     6     1    1
    35    15     7    1
    36    14     9    1
@<TRIPOS>MOLECULE
*****
 32 36 0 0 0
SMALL
GASTEIGER

@<TRIPOS>ATOM
      1 N         140.5186  144.9342  162.0452 N.3     1  UNL1       -0.2710
      2 C         139.3617  144.6740  162.9638 C.3     1  UNL1        0.0728
      3 C         139.5497  143.8218  164.1838 C.3     1  UNL1        0.0298
      4 C         140.8946  143.2300  164.4852 C.3     1  UNL1        0.1147
      5 C         142.0515  143.4902  163.5666 C.3     1  UNL1        0.0298
      6 C         141.8635  144.3423  162.3466 C.3     1  UNL1        0.0728
      7 C         141.0826  142.3778  165.7053 C.2     1  UNL1        0.3507
      8 N         142.1270  141.3165  165.8871 N.2     1  UNL1       -0.0350
      9 C         141.9491  140.7201  167.2519 C.2     1  UNL1        0.2324
     10 C         142.6891  139.6358  167.9776 C.2     1  UNL1        0.0601
     11 C         142.2748  139.2441  169.3650 C.2     1  UNL1        0.0685
     12 C         141.1205  139.9368  170.0267 C.2     1  UNL1       -0.0069
     13 C         140.3805  141.0211  169.3010 C.3     1  UNL1        0.1044
     14 C         140.7948  141.4128  167.9136 C.2     1  UNL1        0.2175
     15 N         140.2593  142.4373  166.9578 N.2     1  UNL1       -0.0389
     16 C         143.0148  138.1599  170.0908 C.1     1  UNL1        0.1002
     17 N         143.7548  137.0755  170.8165 N.1     1  UNL1       -0.1908
     18 C         140.3306  145.7864  160.8251 C.3     1  UNL1        0.0970
     19 C         140.0631  145.1446  159.4960 C.3     1  UNL1        0.1264
     20 C         139.1500  140.8003  160.2333 C.ar    1  UNL1        0.1593
     21 C         140.0750  139.7406  159.7123 C.ar    1  UNL1        0.1357
     22 N         141.3044  140.1290  158.9456 N.ar    1  UNL1       -0.2392
     23 C         141.6087  141.5771  158.6998 C.ar    1  UNL1        0.0975
     24 C         142.8381  141.9655  157.9331 C.ar    1  UNL1        0.0255
     25 C         143.1424  143.4135  157.6874 C.ar    1  UNL1        0.0623
     26 C         142.2174  144.4733  158.2083 C.ar    1  UNL1        0.2611
     27 O         142.5218  145.9213  157.9626 O.2     1  UNL1       -0.2670
     28 N         140.9880  144.0849  158.9750 N.ar    1  UNL1       -0.2926
     29 C         140.6837  142.6367  159.2208 C.ar    1  UNL1        0.0832
     30 C         139.4544  142.2483  159.9875 C.ar    1  UNL1        0.0573
     31 C         137.8761  139.1042  161.7334 C.3     1  UNL1        0.2525
     32 O         137.9207  140.4119  161.0000 O.3     1  UNL1       -0.4698
@<TRIPOS>BOND
     1    31    32    1
     2    32    20    1
     3    20    21   ar
     4    21    22   ar
     5    22    23   ar
     6    23    24   ar
     7    24    25   ar
     8    25    26   ar
     9    26    27    2
    10    26    28   ar
    11    28    19    1
    12    19    18    1
    13    18     1    1
    14     1     2    1
    15     2     3    1
    16     3     4    1
    17     4     7    1
    18     7     8    2
    19     8     9    1
    20     9    10    2
    21    10    11    1
    22    11    16    1
    23    16    17    3
    24    11    12    2
    25    12    13    1
    26    13    14    1
    27    14    15    2
    28     4     5    1
    29     5     6    1
    30    28    29   ar
    31    29    30   ar
    32    30    20   ar
    33    29    23   ar
    34     6     1    1
    35    15     7    1
    36    14     9    1
@<TRIPOS>MOLECULE
*****
 32 36 0 0 0
SMALL
GASTEIGER

@<TRIPOS>ATOM
      1 N         140.2888  144.7950  160.1633 N.3     1  UNL1       -0.2710
      2 C         140.4905  145.5980  161.4141 C.3     1  UNL1        0.0728
      3 C         140.4157  144.9296  162.7548 C.3     1  UNL1        0.0298
      4 C         140.1392  143.4581  162.8448 C.3     1  UNL1        0.1147
      5 C         139.9375  142.6550  161.5940 C.3     1  UNL1        0.0298
      6 C         140.0122  143.3234  160.2533 C.3     1  UNL1        0.0728
      7 C         140.0644  142.7896  164.1856 C.2     1  UNL1        0.3507
      8 N         140.5313  143.3702  165.4875 N.2     1  UNL1       -0.0350
      9 C         140.2651  142.3627  166.5663 C.2     1  UNL1        0.2324
     10 C         140.5160  142.3854  168.0450 C.2     1  UNL1        0.0601
     11 C         140.1356  141.2049  168.8885 C.2     1  UNL1        0.0685
     12 C         139.5042  140.0016  168.2534 C.2     1  UNL1       -0.0069
     13 C         139.2532  139.9788  166.7747 C.3     1  UNL1        0.1044
     14 C         139.6337  141.1593  165.9312 C.2     1  UNL1        0.2175
     15 N         139.5097  141.4232  164.4598 N.2     1  UNL1       -0.0389
     16 C         140.3865  141.2276  170.3672 C.1     1  UNL1        0.1002
     17 N         140.6375  141.2504  171.8459 N.1     1  UNL1       -0.1908
     18 C         140.3636  145.4634  158.8226 C.3     1  UNL1        0.0970
     19 C         139.8086  144.7765  157.6100 C.3     1  UNL1        0.1264
     20 C         138.8828  148.8004  155.8208 C.ar    1  UNL1        0.1593
     21 C         139.3998  149.1518  154.4573 C.ar    1  UNL1        0.1357
     22 N         140.2254  148.1619  153.6902 N.ar    1  UNL1       -0.2392
     23 C         140.5340  146.8206  154.2866 C.ar    1  UNL1        0.0975
     24 C         141.3596  145.8307  153.5195 C.ar    1  UNL1        0.0255
     25 C         141.6682  144.4895  154.1158 C.ar    1  UNL1        0.0623
     26 C         141.1512  144.1380  155.4794 C.ar    1  UNL1        0.2611
     27 O         141.4599  142.7967  156.0758 O.2     1  UNL1       -0.2670
     28 N         140.3256  145.1279  156.2465 N.ar    1  UNL1       -0.2926
     29 C         140.0170  146.4692  155.6501 C.ar    1  UNL1        0.0832
     30 C         139.1914  147.4591  156.4172 C.ar    1  UNL1        0.0573
     31 C         138.0258  149.7391  158.0867 C.3     1  UNL1        0.2525
     32 O         138.0572  149.7903  156.5880 O.3     1  UNL1       -0.4698
@<TRIPOS>BOND
     1    31    32    1
     2    32    20    1
     3    20    21   ar
     4    21    22   ar
     5    22    23   ar
     6    23    24   ar
     7    24    25   ar
     8    25    26   ar
     9    26    27    2
    10    26    28   ar
    11    28    19    1
    12    19    18    1
    13    18     1    1
    14     1     2    1
    15     2     3    1
    16     3     4    1
    17     4     7    1
    18     7     8    2
    19     8     9    1
    20     9    10    2
    21    10    11    1
    22    11    16    1
    23    16    17    3
    24    11    12    2
    25    12    13    1
    26    13    14    1
    27    14    15    2
    28     4     5    1
    29     5     6    1
    30    28    29   ar
    31    29    30   ar
    32    30    20   ar
    33    29    23   ar
    34     6     1    1
    35    15     7    1
    36    14     9    1
@<TRIPOS>MOLECULE
*****
 32 36 0 0 0
SMALL
GASTEIGER

@<TRIPOS>ATOM
      1 N         139.5891  142.4674  163.9793 N.3     1  UNL1       -0.2710
      2 C         138.3618  142.7970  163.1824 C.3     1  UNL1        0.0728
      3 C         138.4931  143.2838  161.7697 C.3     1  UNL1        0.0298
      4 C         139.8518  143.4409  161.1539 C.3     1  UNL1        0.1147
      5 C         141.0791  143.1112  161.9508 C.3     1  UNL1        0.0298
      6 C         140.9478  142.6245  163.3635 C.3     1  UNL1        0.0728
      7 C         139.9832  143.9276  159.7411 C.2     1  UNL1        0.3507
      8 N         139.8878  145.3543  159.2877 N.2     1  UNL1       -0.0350
      9 C         140.0787  145.3817  157.8001 C.2     1  UNL1        0.2324
     10 C         140.0858  146.5081  156.8096 C.2     1  UNL1        0.0601
     11 C         140.3063  146.2248  155.3532 C.2     1  UNL1        0.0685
     12 C         140.5195  144.8150  154.8873 C.2     1  UNL1       -0.0069
     13 C         140.5124  143.6885  155.8778 C.3     1  UNL1        0.1044
     14 C         140.2920  143.9718  157.3342 C.2     1  UNL1        0.2175
     15 N         140.2329  143.0733  158.5338 N.2     1  UNL1       -0.0389
     16 C         140.3134  147.3512  154.3627 C.1     1  UNL1        0.1002
     17 N         140.3205  148.4776  153.3722 N.1     1  UNL1       -0.1908
     18 C         139.4577  141.9806  165.3921 C.3     1  UNL1        0.0970
     19 C         139.4878  140.5097  165.6844 C.3     1  UNL1        0.1264
     20 C         140.9272  140.7397  169.9417 C.ar    1  UNL1        0.1593
     21 C         142.2154  140.0793  170.3346 C.ar    1  UNL1        0.1357
     22 N         143.0238  139.3423  169.3084 N.ar    1  UNL1       -0.2392
     23 C         142.5441  139.2656  167.8893 C.ar    1  UNL1        0.0975
     24 C         143.3525  138.5285  166.8630 C.ar    1  UNL1        0.0255
     25 C         142.8728  138.4518  165.4439 C.ar    1  UNL1        0.0623
     26 C         141.5845  139.1122  165.0510 C.ar    1  UNL1        0.2611
     27 O         141.1047  139.0356  163.6319 O.2     1  UNL1       -0.2670
     28 N         140.7760  139.8493  166.0772 N.ar    1  UNL1       -0.2926
     29 C         141.2559  139.9259  167.4964 C.ar    1  UNL1        0.0832
     30 C         140.4474  140.6630  168.5226 C.ar    1  UNL1        0.0573
     31 C         139.6965  142.8935  170.7141 C.3     1  UNL1        0.2525
     32 O         140.1187  141.4767  170.9680 O.3     1  UNL1       -0.4698
@<TRIPOS>BOND
     1    31    32    1
     2    32    20    1
     3    20    21   ar
     4    21    22   ar
     5    22    23   ar
     6    23    24   ar
     7    24    25   ar
     8    25    26   ar
     9    26    27    2
    10    26    28   ar
    11    28    19    1
    12    19    18    1
    13    18     1    1
    14     1     2    1
    15     2     3    1
    16     3     4    1
    17     4     7    1
    18     7     8    2
    19     8     9    1
    20     9    10    2
    21    10    11    1
    22    11    16    1
    23    16    17    3
    24    11    12    2
    25    12    13    1
    26    13    14    1
    27    14    15    2
    28     4     5    1
    29     5     6    1
    30    28    29   ar
    31    29    30   ar
    32    30    20   ar
    33    29    23   ar
    34     6     1    1
    35    15     7    1
    36    14     9    1
