@<TRIPOS>MOLECULE
*****
 33 37 0 0 0
SMALL
GASTEIGER

@<TRIPOS>ATOM
      1 N         141.3662  142.4639  166.8531 N.3     1  UNL1       -0.2724
      2 C         142.1191  142.6949  165.5764 C.3     1  UNL1        0.0721
      3 C         141.2843  143.5806  164.6998 C.3     1  UNL1        0.0187
      4 C         140.0155  143.8970  165.4345 C.3     1  UNL1        0.0178
      5 C         140.0661  143.2068  166.7654 C.3     1  UNL1        0.0721
      6 C         141.8317  141.6354  168.0137 C.3     1  UNL1        0.0768
      7 C         141.1252  140.3566  168.3535 C.3     1  UNL1        0.0438
      8 C         140.2586  139.6838  167.3305 C.ar    1  UNL1       -0.0211
      9 C         138.8043  139.4517  167.6154 C.ar    1  UNL1       -0.0042
     10 C         137.9378  138.7789  166.5924 C.ar    1  UNL1       -0.0006
     11 C         138.5256  138.3382  165.2846 C.ar    1  UNL1       -0.0043
     12 C         139.9799  138.5702  164.9998 C.ar    1  UNL1       -0.0228
     13 C         140.8464  139.2430  166.0228 C.ar    1  UNL1       -0.0085
     14 C         140.5677  138.1295  163.6920 C.3     1  UNL1        0.0223
     15 C         141.7544  137.7063  162.8781 C.3     1  UNL1        0.0047
     16 C         140.3990  137.7892  162.2409 C.3     1  UNL1        0.0047
     17 C         141.2852  139.7507  169.7163 C.3     1  UNL1        0.0474
     18 O         139.0943  139.4567  171.0816 O.co2   1  UNL1       -0.5492
     19 C         140.3861  140.1792  170.8380 C.2     1  UNL1        0.0507
     20 O         140.7788  141.3302  171.7160 O.co2   1  UNL1       -0.5492
     21 C         138.8931  144.7532  164.9275 C.3     1  UNL1        0.0077
     22 C         137.6589  144.1147  164.3627 C.3     1  UNL1        0.0459
     23 C         137.7777  143.0663  163.2965 C.ar    1  UNL1        0.0603
     24 C         137.6357  141.6159  163.6517 C.ar    1  UNL1        0.0145
     25 C         137.7544  140.5675  162.5855 C.ar    1  UNL1       -0.0003
     26 C         138.0153  140.9695  161.1641 C.ar    1  UNL1        0.0092
     27 C         138.1573  142.4199  160.8089 C.ar    1  UNL1        0.1240
     28 N         138.0385  143.4683  161.8751 N.ar    1  UNL1       -0.2356
     29 N         138.4182  142.8219  159.3875 N.pl3   1  UNL1       -0.3184
     30 C         138.5369  141.7735  158.3214 C.3     1  UNL1        0.0885
     31 C         138.3949  140.3231  158.6766 C.3     1  UNL1        0.0260
     32 C         138.1341  139.9211  160.0979 C.3     1  UNL1        0.0309
     33 H         138.5114  143.7738  159.1544 H       1  UNL1        0.1482
@<TRIPOS>UNITY_ATOM_ATTR
18 1
charge -1
@<TRIPOS>BOND
     1    18    19   ar
     2    19    20   ar
     3    19    17    1
     4     7    17    1
     5     7     6    1
     6     6     1    1
     7     1     2    1
     8     2     3    1
     9     3     4    1
    10     4    21    1
    11    21    22    1
    12    22    23    1
    13    23    24   ar
    14    24    25   ar
    15    25    26   ar
    16    26    27   ar
    17    27    28   ar
    18    27    29    1
    19    29    30    1
    20    30    31    1
    21    31    32    1
    22     4     5    1
    23     7     8    1
    24     8     9   ar
    25     9    10   ar
    26    10    11   ar
    27    11    12   ar
    28    12    14    1
    29    14    15    1
    30    15    16    1
    31    12    13   ar
    32     5     1    1
    33    13     8   ar
    34    28    23   ar
    35    16    14    1
    36    32    26    1
    37    29    33    1
@<TRIPOS>MOLECULE
*****
 33 37 0 0 0
SMALL
GASTEIGER

@<TRIPOS>ATOM
      1 N         141.8939  143.8505  164.2318 N.3     1  UNL1       -0.2724
      2 C         142.5025  144.6105  163.0907 C.3     1  UNL1        0.0721
      3 C         143.9066  144.1179  162.9022 C.3     1  UNL1        0.0187
      4 C         144.1659  143.0534  163.9267 C.3     1  UNL1        0.0178
      5 C         142.9220  142.8882  164.7485 C.3     1  UNL1        0.0721
      6 C         140.5017  144.0226  164.7629 C.3     1  UNL1        0.0768
      7 C         139.4462  143.0055  164.4442 C.3     1  UNL1        0.0438
      8 C         139.3055  141.7786  165.2957 C.ar    1  UNL1       -0.0211
      9 C         138.2085  140.7942  165.0173 C.ar    1  UNL1       -0.0042
     10 C         138.0678  139.5673  165.8688 C.ar    1  UNL1       -0.0006
     11 C         139.0243  139.3248  166.9986 C.ar    1  UNL1       -0.0043
     12 C         140.1213  140.3092  167.2770 C.ar    1  UNL1       -0.0228
     13 C         140.2619  141.5360  166.4255 C.ar    1  UNL1       -0.0085
     14 C         141.0777  140.0667  168.4068 C.3     1  UNL1        0.0223
     15 C         141.3366  139.6334  169.8193 C.3     1  UNL1        0.0047
     16 C         142.4754  140.0799  168.9512 C.3     1  UNL1        0.0047
     17 C         138.5315  143.2153  163.2740 C.3     1  UNL1        0.0474
     18 O         140.1338  141.8622  161.7403 O.co2   1  UNL1       -0.5492
     19 C         138.9522  142.7718  161.9042 C.2     1  UNL1        0.0507
     20 O         138.1915  143.2378  160.6984 O.co2   1  UNL1       -0.5492
     21 C         145.4446  142.2886  164.0992 C.3     1  UNL1        0.0077
     22 C         145.4870  140.8203  163.7957 C.3     1  UNL1        0.0459
     23 C         144.2427  139.9921  163.9219 C.ar    1  UNL1        0.0603
     24 C         143.9618  139.2498  165.1947 C.ar    1  UNL1        0.0145
     25 C         142.7175  138.4216  165.3210 C.ar    1  UNL1       -0.0003
     26 C         141.7542  138.3357  164.1743 C.ar    1  UNL1        0.0092
     27 C         142.0352  139.0780  162.9015 C.ar    1  UNL1        0.1240
     28 N         143.2795  139.9062  162.7753 N.ar    1  UNL1       -0.2356
     29 N         141.0719  138.9921  161.7549 N.pl3   1  UNL1       -0.3184
     30 C         139.8277  138.1639  161.8812 C.3     1  UNL1        0.0885
     31 C         139.5467  137.4216  163.1540 C.3     1  UNL1        0.0260
     32 C         140.5100  137.5075  164.3006 C.3     1  UNL1        0.0309
     33 H         141.2563  139.4793  160.9195 H       1  UNL1        0.1482
@<TRIPOS>UNITY_ATOM_ATTR
18 1
charge -1
@<TRIPOS>BOND
     1    18    19   ar
     2    19    20   ar
     3    19    17    1
     4     7    17    1
     5     7     6    1
     6     6     1    1
     7     1     2    1
     8     2     3    1
     9     3     4    1
    10     4    21    1
    11    21    22    1
    12    22    23    1
    13    23    24   ar
    14    24    25   ar
    15    25    26   ar
    16    26    27   ar
    17    27    28   ar
    18    27    29    1
    19    29    30    1
    20    30    31    1
    21    31    32    1
    22     4     5    1
    23     7     8    1
    24     8     9   ar
    25     9    10   ar
    26    10    11   ar
    27    11    12   ar
    28    12    14    1
    29    14    15    1
    30    15    16    1
    31    12    13   ar
    32     5     1    1
    33    13     8   ar
    34    28    23   ar
    35    16    14    1
    36    32    26    1
    37    29    33    1
@<TRIPOS>MOLECULE
*****
 33 37 0 0 0
SMALL
GASTEIGER

@<TRIPOS>ATOM
      1 N         141.3582  144.6598  163.5038 N.3     1  UNL1       -0.2724
      2 C         142.5080  145.5047  163.9667 C.3     1  UNL1        0.0721
      3 C         143.7315  145.0761  163.2122 C.3     1  UNL1        0.0187
      4 C         143.3380  143.9663  162.2830 C.3     1  UNL1        0.0178
      5 C         141.8712  143.7090  162.4632 C.3     1  UNL1        0.0721
      6 C         139.9439  144.7499  163.9952 C.3     1  UNL1        0.0768
      7 C         139.1385  143.5004  164.1955 C.3     1  UNL1        0.0438
      8 C         139.6088  142.4513  165.1591 C.ar    1  UNL1       -0.0211
      9 C         140.9002  142.6375  165.8991 C.ar    1  UNL1       -0.0042
     10 C         141.3704  141.5884  166.8626 C.ar    1  UNL1       -0.0006
     11 C         140.5493  140.3531  167.0860 C.ar    1  UNL1       -0.0043
     12 C         139.2580  140.1669  166.3459 C.ar    1  UNL1       -0.0228
     13 C         138.7877  141.2160  165.3825 C.ar    1  UNL1       -0.0085
     14 C         138.4368  138.9317  166.5694 C.3     1  UNL1        0.0223
     15 C         138.1007  137.5135  166.2147 C.3     1  UNL1        0.0047
     16 C         137.3508  138.2103  167.3111 C.3     1  UNL1        0.0047
     17 C         137.8628  143.3000  163.4324 C.3     1  UNL1        0.0474
     18 O         137.3501  141.2872  161.8715 O.co2   1  UNL1       -0.5492
     19 C         137.8942  142.6709  162.0710 C.2     1  UNL1        0.0507
     20 O         138.4696  143.4252  160.9092 O.co2   1  UNL1       -0.5492
     21 C         144.2509  143.2411  161.3393 C.3     1  UNL1        0.0077
     22 C         145.0187  142.0422  161.8114 C.3     1  UNL1        0.0459
     23 C         144.3347  140.9886  162.6312 C.ar    1  UNL1        0.0603
     24 C         144.8268  140.6768  164.0135 C.ar    1  UNL1        0.0145
     25 C         144.1429  139.6233  164.8333 C.ar    1  UNL1       -0.0003
     26 C         142.9667  138.8814  164.2709 C.ar    1  UNL1        0.0092
     27 C         142.4745  139.1931  162.8886 C.ar    1  UNL1        0.1240
     28 N         143.1585  140.2468  162.0688 N.ar    1  UNL1       -0.2356
     29 N         141.2984  138.4513  162.3262 N.pl3   1  UNL1       -0.3184
     30 C         140.6144  137.3978  163.1460 C.3     1  UNL1        0.0885
     31 C         141.1065  137.0860  164.5283 C.3     1  UNL1        0.0260
     32 C         142.2827  137.8279  165.0907 C.3     1  UNL1        0.0309
     33 H         140.9753  138.6559  161.4190 H       1  UNL1        0.1482
@<TRIPOS>UNITY_ATOM_ATTR
18 1
charge -1
@<TRIPOS>BOND
     1    18    19   ar
     2    19    20   ar
     3    19    17    1
     4     7    17    1
     5     7     6    1
     6     6     1    1
     7     1     2    1
     8     2     3    1
     9     3     4    1
    10     4    21    1
    11    21    22    1
    12    22    23    1
    13    23    24   ar
    14    24    25   ar
    15    25    26   ar
    16    26    27   ar
    17    27    28   ar
    18    27    29    1
    19    29    30    1
    20    30    31    1
    21    31    32    1
    22     4     5    1
    23     7     8    1
    24     8     9   ar
    25     9    10   ar
    26    10    11   ar
    27    11    12   ar
    28    12    14    1
    29    14    15    1
    30    15    16    1
    31    12    13   ar
    32     5     1    1
    33    13     8   ar
    34    28    23   ar
    35    16    14    1
    36    32    26    1
    37    29    33    1
@<TRIPOS>MOLECULE
*****
 33 37 0 0 0
SMALL
GASTEIGER

@<TRIPOS>ATOM
      1 N         143.1904  141.7009  166.6947 N.3     1  UNL1       -0.2724
      2 C         143.7712  142.8968  165.9999 C.3     1  UNL1        0.0721
      3 C         144.3216  142.4441  164.6800 C.3     1  UNL1        0.0187
      4 C         144.0810  140.9684  164.5591 C.3     1  UNL1        0.0178
      5 C         143.3819  140.5092  165.8042 C.3     1  UNL1        0.0721
      6 C         142.5336  141.6975  168.0432 C.3     1  UNL1        0.0768
      7 C         141.0656  141.9818  168.1632 C.3     1  UNL1        0.0438
      8 C         140.1135  141.4589  167.1287 C.ar    1  UNL1       -0.0211
      9 C         139.6292  140.0412  167.2034 C.ar    1  UNL1       -0.0042
     10 C         138.6771  139.5184  166.1690 C.ar    1  UNL1       -0.0006
     11 C         138.2092  140.4133  165.0598 C.ar    1  UNL1       -0.0043
     12 C         138.6935  141.8310  164.9850 C.ar    1  UNL1       -0.0228
     13 C         139.6456  142.3538  166.0195 C.ar    1  UNL1       -0.0085
     14 C         138.2256  142.7259  163.8758 C.3     1  UNL1        0.0223
     15 C         137.8753  144.0941  163.3708 C.3     1  UNL1        0.0047
     16 C         137.7656  142.9076  162.4597 C.3     1  UNL1        0.0047
     17 C         140.5499  142.7889  169.3175 C.3     1  UNL1        0.0474
     18 O         138.7251  141.2787  170.3852 O.co2   1  UNL1       -0.5492
     19 C         139.9747  142.0978  170.5182 C.2     1  UNL1        0.0507
     20 O         140.6490  142.2260  171.8520 O.co2   1  UNL1       -0.5492
     21 C         144.4710  140.1039  163.3970 C.3     1  UNL1        0.0077
     22 C         143.8312  138.7596  163.2143 C.3     1  UNL1        0.0459
     23 C         142.3695  138.6623  162.8917 C.ar    1  UNL1        0.0603
     24 C         141.5016  137.6874  163.6307 C.ar    1  UNL1        0.0145
     25 C         140.0399  137.5901  163.3081 C.ar    1  UNL1       -0.0003
     26 C         139.4461  138.4677  162.2464 C.ar    1  UNL1        0.0092
     27 C         140.3140  139.4427  161.5073 C.ar    1  UNL1        0.1240
     28 N         141.7757  139.5400  161.8300 N.ar    1  UNL1       -0.2356
     29 N         139.7203  140.3203  160.4456 N.pl3   1  UNL1       -0.3184
     30 C         138.2587  140.2230  160.1230 C.3     1  UNL1        0.0885
     31 C         137.3908  139.2480  160.8621 C.3     1  UNL1        0.0260
     32 C         137.9845  138.3704  161.9238 C.3     1  UNL1        0.0309
     33 H         140.2900  140.9602  159.9606 H       1  UNL1        0.1482
@<TRIPOS>UNITY_ATOM_ATTR
18 1
charge -1
@<TRIPOS>BOND
     1    18    19   ar
     2    19    20   ar
     3    19    17    1
     4     7    17    1
     5     7     6    1
     6     6     1    1
     7     1     2    1
     8     2     3    1
     9     3     4    1
    10     4    21    1
    11    21    22    1
    12    22    23    1
    13    23    24   ar
    14    24    25   ar
    15    25    26   ar
    16    26    27   ar
    17    27    28   ar
    18    27    29    1
    19    29    30    1
    20    30    31    1
    21    31    32    1
    22     4     5    1
    23     7     8    1
    24     8     9   ar
    25     9    10   ar
    26    10    11   ar
    27    11    12   ar
    28    12    14    1
    29    14    15    1
    30    15    16    1
    31    12    13   ar
    32     5     1    1
    33    13     8   ar
    34    28    23   ar
    35    16    14    1
    36    32    26    1
    37    29    33    1
@<TRIPOS>MOLECULE
*****
 33 37 0 0 0
SMALL
GASTEIGER

@<TRIPOS>ATOM
      1 N         138.0421  142.0177  163.4880 N.3     1  UNL1       -0.2724
      2 C         137.8537  142.8624  164.7132 C.3     1  UNL1        0.0721
      3 C         138.2827  144.2611  164.3823 C.3     1  UNL1        0.0187
      4 C         138.7363  144.2809  162.9526 C.3     1  UNL1        0.0178
      5 C         138.5876  142.8943  162.4000 C.3     1  UNL1        0.0721
      6 C         137.7383  140.5534  163.3714 C.3     1  UNL1        0.0768
      7 C         138.7300  139.5403  163.8617 C.3     1  UNL1        0.0438
      8 C         139.7253  139.9159  164.9194 C.ar    1  UNL1       -0.0211
      9 C         141.1171  140.3178  164.5306 C.ar    1  UNL1       -0.0042
     10 C         142.1123  140.6934  165.5882 C.ar    1  UNL1       -0.0006
     11 C         141.7156  140.6670  167.0346 C.ar    1  UNL1       -0.0043
     12 C         140.3238  140.2651  167.4233 C.ar    1  UNL1       -0.0228
     13 C         139.3286  139.8895  166.3657 C.ar    1  UNL1       -0.0085
     14 C         139.9271  140.2387  168.8697 C.3     1  UNL1        0.0223
     15 C         140.2884  140.0439  170.3125 C.3     1  UNL1        0.0047
     16 C         138.8787  140.3878  169.9321 C.3     1  UNL1        0.0047
     17 C         138.7264  138.1518  163.2944 C.3     1  UNL1        0.0474
     18 O         141.0005  137.1988  162.4755 O.co2   1  UNL1       -0.5492
     19 C         139.6583  137.7970  162.1738 C.2     1  UNL1        0.0507
     20 O         139.2482  138.0403  160.7517 O.co2   1  UNL1       -0.5492
     21 C         139.2487  145.4771  162.2067 C.3     1  UNL1        0.0077
     22 C         140.6288  145.4601  161.6194 C.3     1  UNL1        0.0459
     23 C         141.7317  144.7204  162.3170 C.ar    1  UNL1        0.0603
     24 C         142.3916  145.3207  163.5228 C.ar    1  UNL1        0.0145
     25 C         143.4945  144.5811  164.2204 C.ar    1  UNL1       -0.0003
     26 C         143.9375  143.2411  163.7121 C.ar    1  UNL1        0.0092
     27 C         143.2775  142.6408  162.5063 C.ar    1  UNL1        0.1240
     28 N         142.1746  143.3805  161.8087 N.ar    1  UNL1       -0.2356
     29 N         143.7204  141.3009  161.9980 N.pl3   1  UNL1       -0.3184
     30 C         144.8233  140.5613  162.6956 C.3     1  UNL1        0.0885
     31 C         145.4832  141.1616  163.9014 C.3     1  UNL1        0.0260
     32 C         145.0403  142.5015  164.4097 C.3     1  UNL1        0.0309
     33 H         143.2873  140.9069  161.2065 H       1  UNL1        0.1482
@<TRIPOS>UNITY_ATOM_ATTR
18 1
charge -1
@<TRIPOS>BOND
     1    18    19   ar
     2    19    20   ar
     3    19    17    1
     4     7    17    1
     5     7     6    1
     6     6     1    1
     7     1     2    1
     8     2     3    1
     9     3     4    1
    10     4    21    1
    11    21    22    1
    12    22    23    1
    13    23    24   ar
    14    24    25   ar
    15    25    26   ar
    16    26    27   ar
    17    27    28   ar
    18    27    29    1
    19    29    30    1
    20    30    31    1
    21    31    32    1
    22     4     5    1
    23     7     8    1
    24     8     9   ar
    25     9    10   ar
    26    10    11   ar
    27    11    12   ar
    28    12    14    1
    29    14    15    1
    30    15    16    1
    31    12    13   ar
    32     5     1    1
    33    13     8   ar
    34    28    23   ar
    35    16    14    1
    36    32    26    1
    37    29    33    1
@<TRIPOS>MOLECULE
*****
 33 37 0 0 0
SMALL
GASTEIGER

@<TRIPOS>ATOM
      1 N         138.2372  140.1695  163.6144 N.3     1  UNL1       -0.2724
      2 C         137.9294  140.6877  162.2408 C.3     1  UNL1        0.0721
      3 C         137.6642  142.1601  162.3495 C.3     1  UNL1        0.0187
      4 C         137.8080  142.5519  163.7902 C.3     1  UNL1        0.0178
      5 C         138.1622  141.3216  164.5720 C.3     1  UNL1        0.0721
      6 C         138.5628  138.7487  163.9683 C.3     1  UNL1        0.0768
      7 C         139.9915  138.3298  164.1511 C.3     1  UNL1        0.0438
      8 C         140.7454  138.7512  165.3776 C.ar    1  UNL1       -0.0211
      9 C         142.2269  138.5311  165.4598 C.ar    1  UNL1       -0.0042
     10 C         142.9808  138.9525  166.6862 C.ar    1  UNL1       -0.0006
     11 C         142.2532  139.5939  167.8304 C.ar    1  UNL1       -0.0043
     12 C         140.7718  139.8140  167.7482 C.ar    1  UNL1       -0.0228
     13 C         140.0179  139.3926  166.5218 C.ar    1  UNL1       -0.0085
     14 C         140.0442  140.4554  168.8924 C.3     1  UNL1        0.0223
     15 C         138.9696  140.4093  169.9379 C.3     1  UNL1        0.0047
     16 C         139.8586  141.6125  169.8287 C.3     1  UNL1        0.0047
     17 C         140.6662  137.4897  163.1077 C.3     1  UNL1        0.0474
     18 O         142.1669  137.3223  160.9934 O.co2   1  UNL1       -0.5492
     19 C         141.3443  138.1444  161.9408 C.2     1  UNL1        0.0507
     20 O         141.1999  139.6212  161.7214 O.co2   1  UNL1       -0.5492
     21 C         137.6292  143.9316  164.3508 C.3     1  UNL1        0.0077
     22 C         138.7962  144.6508  164.9596 C.3     1  UNL1        0.0459
     23 C         140.1636  144.0360  164.9127 C.ar    1  UNL1        0.0603
     24 C         140.6519  143.2045  166.0617 C.ar    1  UNL1        0.0145
     25 C         142.0193  142.5896  166.0148 C.ar    1  UNL1       -0.0003
     26 C         142.8984  142.8063  164.8189 C.ar    1  UNL1        0.0092
     27 C         142.4102  143.6378  163.6699 C.ar    1  UNL1        0.1240
     28 N         141.0427  144.2527  163.7168 N.ar    1  UNL1       -0.2356
     29 N         143.2893  143.8545  162.4740 N.pl3   1  UNL1       -0.3184
     30 C         144.6566  143.2397  162.4271 C.3     1  UNL1        0.0885
     31 C         145.1449  142.4082  163.5761 C.3     1  UNL1        0.0260
     32 C         144.2658  142.1915  164.7720 C.3     1  UNL1        0.0309
     33 H         142.9688  144.4002  161.7199 H       1  UNL1        0.1482
@<TRIPOS>UNITY_ATOM_ATTR
18 1
charge -1
@<TRIPOS>BOND
     1    18    19   ar
     2    19    20   ar
     3    19    17    1
     4     7    17    1
     5     7     6    1
     6     6     1    1
     7     1     2    1
     8     2     3    1
     9     3     4    1
    10     4    21    1
    11    21    22    1
    12    22    23    1
    13    23    24   ar
    14    24    25   ar
    15    25    26   ar
    16    26    27   ar
    17    27    28   ar
    18    27    29    1
    19    29    30    1
    20    30    31    1
    21    31    32    1
    22     4     5    1
    23     7     8    1
    24     8     9   ar
    25     9    10   ar
    26    10    11   ar
    27    11    12   ar
    28    12    14    1
    29    14    15    1
    30    15    16    1
    31    12    13   ar
    32     5     1    1
    33    13     8   ar
    34    28    23   ar
    35    16    14    1
    36    32    26    1
    37    29    33    1
@<TRIPOS>MOLECULE
*****
 33 37 0 0 0
SMALL
GASTEIGER

@<TRIPOS>ATOM
      1 N         138.1793  141.2035  164.2552 N.3     1  UNL1       -0.2724
      2 C         137.8702  140.6347  162.9020 C.3     1  UNL1        0.0721
      3 C         138.2638  139.1873  162.9066 C.3     1  UNL1        0.0187
      4 C         138.8162  138.8615  164.2626 C.3     1  UNL1        0.0178
      5 C         138.7640  140.1075  165.0960 C.3     1  UNL1        0.0721
      6 C         137.9449  142.6195  164.6909 C.3     1  UNL1        0.0768
      7 C         139.0911  143.5852  164.7511 C.3     1  UNL1        0.0438
      8 C         140.3607  143.1997  165.4509 C.ar    1  UNL1       -0.0211
      9 C         141.6640  143.2266  164.7090 C.ar    1  UNL1       -0.0042
     10 C         142.9335  142.8411  165.4089 C.ar    1  UNL1       -0.0006
     11 C         142.8996  142.4287  166.8507 C.ar    1  UNL1       -0.0043
     12 C         141.5962  142.4018  167.5926 C.ar    1  UNL1       -0.0228
     13 C         140.3268  142.7873  166.8927 C.ar    1  UNL1       -0.0085
     14 C         141.5623  141.9894  169.0344 C.3     1  UNL1        0.0223
     15 C         141.9165  142.2494  170.4686 C.3     1  UNL1        0.0047
     16 C         141.1495  141.0150  170.0975 C.3     1  UNL1        0.0047
     17 C         138.9678  144.9364  164.1114 C.3     1  UNL1        0.0474
     18 O         139.9944  146.2268  162.1037 O.co2   1  UNL1       -0.5492
     19 C         139.1741  145.0881  162.6335 C.2     1  UNL1        0.0507
     20 O         138.5600  144.1013  161.6852 O.co2   1  UNL1       -0.5492
     21 C         139.3305  137.5244  164.7070 C.3     1  UNL1        0.0077
     22 C         140.6729  137.0444  164.2406 C.3     1  UNL1        0.0459
     23 C         141.8406  137.9858  164.2202 C.ar    1  UNL1        0.0603
     24 C         142.7654  138.0592  165.3989 C.ar    1  UNL1        0.0145
     25 C         143.9330  139.0005  165.3785 C.ar    1  UNL1       -0.0003
     26 C         144.1758  139.8686  164.1795 C.ar    1  UNL1        0.0092
     27 C         143.2510  139.7952  163.0008 C.ar    1  UNL1        0.1240
     28 N         142.0833  138.8538  163.0212 N.ar    1  UNL1       -0.2356
     29 N         143.4937  140.6632  161.8018 N.pl3   1  UNL1       -0.3184
     30 C         144.6613  141.6046  161.7815 C.3     1  UNL1        0.0885
     31 C         145.5862  141.6779  162.9602 C.3     1  UNL1        0.0260
     32 C         145.3435  140.8100  164.1592 C.3     1  UNL1        0.0309
     33 H         142.8867  140.6150  161.0283 H       1  UNL1        0.1482
@<TRIPOS>UNITY_ATOM_ATTR
18 1
charge -1
@<TRIPOS>BOND
     1    18    19   ar
     2    19    20   ar
     3    19    17    1
     4     7    17    1
     5     7     6    1
     6     6     1    1
     7     1     2    1
     8     2     3    1
     9     3     4    1
    10     4    21    1
    11    21    22    1
    12    22    23    1
    13    23    24   ar
    14    24    25   ar
    15    25    26   ar
    16    26    27   ar
    17    27    28   ar
    18    27    29    1
    19    29    30    1
    20    30    31    1
    21    31    32    1
    22     4     5    1
    23     7     8    1
    24     8     9   ar
    25     9    10   ar
    26    10    11   ar
    27    11    12   ar
    28    12    14    1
    29    14    15    1
    30    15    16    1
    31    12    13   ar
    32     5     1    1
    33    13     8   ar
    34    28    23   ar
    35    16    14    1
    36    32    26    1
    37    29    33    1
@<TRIPOS>MOLECULE
*****
 33 37 0 0 0
SMALL
GASTEIGER

@<TRIPOS>ATOM
      1 N         142.1168  138.2481  163.5515 N.3     1  UNL1       -0.2724
      2 C         141.2384  137.9001  162.3865 C.3     1  UNL1        0.0721
      3 C         139.8853  137.5328  162.9196 C.3     1  UNL1        0.0187
      4 C         139.9275  137.6537  164.4141 C.3     1  UNL1        0.0178
      5 C         141.3066  138.0959  164.8047 C.3     1  UNL1        0.0721
      6 C         143.5532  138.6737  163.4765 C.3     1  UNL1        0.0768
      7 C         143.9039  140.0471  162.9858 C.3     1  UNL1        0.0438
      8 C         143.7503  141.2303  163.8949 C.ar    1  UNL1       -0.0211
      9 C         143.7759  142.6193  163.3291 C.ar    1  UNL1       -0.0042
     10 C         143.6223  143.8024  164.2382 C.ar    1  UNL1       -0.0006
     11 C         143.4430  143.5966  165.7132 C.ar    1  UNL1       -0.0043
     12 C         143.4174  142.2077  166.2790 C.ar    1  UNL1       -0.0228
     13 C         143.5711  141.0246  165.3699 C.ar    1  UNL1       -0.0085
     14 C         143.2382  142.0020  167.7540 C.3     1  UNL1        0.0223
     15 C         143.6642  142.2785  169.1654 C.3     1  UNL1        0.0047
     16 C         142.5019  141.3690  168.8973 C.3     1  UNL1        0.0047
     17 C         144.4082  140.2372  161.5860 C.3     1  UNL1        0.0474
     18 O         142.4332  140.8664  160.0196 O.co2   1  UNL1       -0.5492
     19 C         143.5221  139.9153  160.4193 C.2     1  UNL1        0.0507
     20 O         143.7249  138.6422  159.6523 O.co2   1  UNL1       -0.5492
     21 C         138.7902  137.3806  165.3532 C.3     1  UNL1        0.0077
     22 C         138.1740  138.5048  166.1319 C.3     1  UNL1        0.0459
     23 C         138.5385  139.9249  165.8148 C.ar    1  UNL1        0.0603
     24 C         139.5728  140.6352  166.6369 C.ar    1  UNL1        0.0145
     25 C         139.9373  142.0552  166.3199 C.ar    1  UNL1       -0.0003
     26 C         139.2676  142.7651  165.1807 C.ar    1  UNL1        0.0092
     27 C         138.2334  142.0548  164.3586 C.ar    1  UNL1        0.1240
     28 N         137.8688  140.6347  164.6757 N.ar    1  UNL1       -0.2356
     29 N         137.5637  142.7646  163.2195 N.pl3   1  UNL1       -0.3184
     30 C         137.9282  144.1846  162.9025 C.3     1  UNL1        0.0885
     31 C         138.9625  144.8949  163.7246 C.3     1  UNL1        0.0260
     32 C         139.6322  144.1851  164.8637 C.3     1  UNL1        0.0309
     33 H         136.8849  142.2984  162.6799 H       1  UNL1        0.1482
@<TRIPOS>UNITY_ATOM_ATTR
18 1
charge -1
@<TRIPOS>BOND
     1    18    19   ar
     2    19    20   ar
     3    19    17    1
     4     7    17    1
     5     7     6    1
     6     6     1    1
     7     1     2    1
     8     2     3    1
     9     3     4    1
    10     4    21    1
    11    21    22    1
    12    22    23    1
    13    23    24   ar
    14    24    25   ar
    15    25    26   ar
    16    26    27   ar
    17    27    28   ar
    18    27    29    1
    19    29    30    1
    20    30    31    1
    21    31    32    1
    22     4     5    1
    23     7     8    1
    24     8     9   ar
    25     9    10   ar
    26    10    11   ar
    27    11    12   ar
    28    12    14    1
    29    14    15    1
    30    15    16    1
    31    12    13   ar
    32     5     1    1
    33    13     8   ar
    34    28    23   ar
    35    16    14    1
    36    32    26    1
    37    29    33    1
@<TRIPOS>MOLECULE
*****
 33 37 0 0 0
SMALL
GASTEIGER

@<TRIPOS>ATOM
      1 N         141.4989  139.6958  165.8277 N.3     1  UNL1       -0.2724
      2 C         140.2743  139.8140  166.6859 C.3     1  UNL1        0.0721
      3 C         139.1768  139.0221  166.0391 C.3     1  UNL1        0.0187
      4 C         139.7230  138.4145  164.7812 C.3     1  UNL1        0.0178
      5 C         141.1581  138.8309  164.6505 C.3     1  UNL1        0.0721
      6 C         142.8304  140.3310  166.0990 C.3     1  UNL1        0.0768
      7 C         143.5114  141.1317  165.0289 C.3     1  UNL1        0.0438
      8 C         142.9875  142.4876  164.6587 C.ar    1  UNL1       -0.0211
      9 C         143.9136  143.5183  164.0842 C.ar    1  UNL1       -0.0042
     10 C         143.3896  144.8742  163.7141 C.ar    1  UNL1       -0.0006
     11 C         141.9396  145.1994  163.9185 C.ar    1  UNL1       -0.0043
     12 C         141.0136  144.1688  164.4930 C.ar    1  UNL1       -0.0228
     13 C         141.5375  142.8129  164.8631 C.ar    1  UNL1       -0.0085
     14 C         139.5636  144.4940  164.6974 C.3     1  UNL1        0.0223
     15 C         138.1616  144.5670  164.1690 C.3     1  UNL1        0.0047
     16 C         138.4541  144.9842  165.5799 C.3     1  UNL1        0.0047
     17 C         144.7163  140.5764  164.3289 C.3     1  UNL1        0.0474
     18 O         145.0617  141.0966  161.8070 O.co2   1  UNL1       -0.5492
     19 C         144.6222  140.1581  162.8915 C.2     1  UNL1        0.0507
     20 O         144.0887  138.8014  162.5386 O.co2   1  UNL1       -0.5492
     21 C         138.9668  137.5436  163.8223 C.3     1  UNL1        0.0077
     22 C         138.6317  138.0521  162.4515 C.3     1  UNL1        0.0459
     23 C         138.9352  139.4745  162.0843 C.ar    1  UNL1        0.0603
     24 C         137.8471  140.5064  162.1187 C.ar    1  UNL1        0.0145
     25 C         138.1504  141.9288  161.7515 C.ar    1  UNL1       -0.0003
     26 C         139.5420  142.3192  161.3499 C.ar    1  UNL1        0.0092
     27 C         140.6301  141.2873  161.3154 C.ar    1  UNL1        0.1240
     28 N         140.3266  139.8649  161.6827 N.ar    1  UNL1       -0.2356
     29 N         142.0215  141.6777  160.9138 N.pl3   1  UNL1       -0.3184
     30 C         142.3249  143.1000  160.5466 C.3     1  UNL1        0.0885
     31 C         141.2368  144.1320  160.5810 C.3     1  UNL1        0.0260
     32 C         139.8454  143.7416  160.9827 C.3     1  UNL1        0.0309
     33 H         142.7357  141.0004  160.8912 H       1  UNL1        0.1482
@<TRIPOS>UNITY_ATOM_ATTR
18 1
charge -1
@<TRIPOS>BOND
     1    18    19   ar
     2    19    20   ar
     3    19    17    1
     4     7    17    1
     5     7     6    1
     6     6     1    1
     7     1     2    1
     8     2     3    1
     9     3     4    1
    10     4    21    1
    11    21    22    1
    12    22    23    1
    13    23    24   ar
    14    24    25   ar
    15    25    26   ar
    16    26    27   ar
    17    27    28   ar
    18    27    29    1
    19    29    30    1
    20    30    31    1
    21    31    32    1
    22     4     5    1
    23     7     8    1
    24     8     9   ar
    25     9    10   ar
    26    10    11   ar
    27    11    12   ar
    28    12    14    1
    29    14    15    1
    30    15    16    1
    31    12    13   ar
    32     5     1    1
    33    13     8   ar
    34    28    23   ar
    35    16    14    1
    36    32    26    1
    37    29    33    1
