@<TRIPOS>MOLECULE
*****
 24 26 0 0 0
SMALL
GASTEIGER

@<TRIPOS>ATOM
      1 N         142.0453  142.2393  165.5622 N.3     1  UNL1       -0.3206
      2 C         142.0788  140.8754  164.9386 C.3     1  UNL1        0.0750
      3 C         142.4173  140.7233  163.4853 C.3     1  UNL1        0.1079
      4 N         142.4509  139.3595  162.8617 N.pl3   1  UNL1       -0.2918
      5 C         142.1460  138.1477  163.6915 C.3     1  UNL1        0.0926
      6 C         141.8075  138.2998  165.1449 C.3     1  UNL1        0.0273
      7 C         141.7740  139.6636  165.7684 C.3     1  UNL1        0.0422
      8 H         142.2758  142.9406  164.8584 H       1  UNL1        0.1189
      9 H         142.7253  142.2829  166.3212 H       1  UNL1        0.1189
     10 C         141.4355  139.8157  167.2219 C.ar    1  UNL1        0.0087
     11 C         142.5138  139.7045  168.2586 C.ar    1  UNL1        0.0300
     12 C         142.1754  139.8565  169.7120 C.ar    1  UNL1        0.1672
     13 F         143.2537  139.7454  170.7488 F       1  UNL1       -0.2018
     14 C         140.7586  140.1197  170.1287 C.ar    1  UNL1        0.1696
     15 F         140.4202  140.2717  171.5820 F       1  UNL1       -0.2017
     16 C         139.6803  140.2309  169.0919 C.ar    1  UNL1        0.0612
     17 C         140.0188  140.0789  167.6385 C.ar    1  UNL1        0.1386
     18 F         138.9405  140.1900  166.6017 F       1  UNL1       -0.2044
     19 C         142.7893  139.2075  161.4083 C.ar    1  UNL1        0.1351
     20 C         142.4297  137.9449  160.6826 C.ar    1  UNL1        0.0550
     21 C         142.7682  137.7928  159.2292 C.ar    1  UNL1        0.1036
     22 N         143.4662  138.9034  158.5015 N.ar    1  UNL1       -0.2223
     23 C         143.8258  140.1659  159.2272 C.ar    1  UNL1        0.2001
     24 N         143.4874  140.3179  160.6806 N.ar    1  UNL1       -0.2090
@<TRIPOS>BOND
     1     2     1    1
     2     2     3    1
     3     3     4    1
     4     4    19    1
     5    19    20   ar
     6    20    21   ar
     7    21    22   ar
     8    22    23   ar
     9    23    24   ar
    10     4     5    1
    11     5     6    1
    12     6     7    1
    13     7    10    1
    14    10    11   ar
    15    11    12   ar
    16    12    13    1
    17    12    14   ar
    18    14    15    1
    19    14    16   ar
    20    16    17   ar
    21    17    18    1
    22     7     2    1
    23    17    10   ar
    24    24    19   ar
    25     1     8    1
    26     1     9    1
@<TRIPOS>MOLECULE
*****
 24 26 0 0 0
SMALL
GASTEIGER

@<TRIPOS>ATOM
      1 N         141.6389  141.7127  164.5936 N.3     1  UNL1       -0.3206
      2 C         141.4245  140.3249  164.0663 C.3     1  UNL1        0.0750
      3 C         141.4097  140.0788  162.5867 C.3     1  UNL1        0.1079
      4 N         141.1953  138.6910  162.0594 N.pl3   1  UNL1       -0.2918
      5 C         140.9955  137.5494  163.0116 C.3     1  UNL1        0.0926
      6 C         141.0102  137.7955  164.4911 C.3     1  UNL1        0.0273
      7 C         141.2247  139.1833  165.0185 C.3     1  UNL1        0.0422
      8 H         141.7561  142.3587  163.8130 H       1  UNL1        0.1189
      9 H         142.4754  141.7292  165.1771 H       1  UNL1        0.1189
     10 C         141.2394  139.4294  166.4981 C.ar    1  UNL1        0.0087
     11 C         139.9784  139.8308  167.2042 C.ar    1  UNL1        0.0300
     12 C         139.9930  140.0769  168.6838 C.ar    1  UNL1        0.1672
     13 F         138.7319  140.4783  169.3899 F       1  UNL1       -0.2018
     14 C         141.2688  139.9216  169.4574 C.ar    1  UNL1        0.1696
     15 F         141.2835  140.1677  170.9369 F       1  UNL1       -0.2017
     16 C         142.5299  139.5202  168.7513 C.ar    1  UNL1        0.0612
     17 C         142.5152  139.2741  167.2716 C.ar    1  UNL1        0.1386
     18 F         143.7762  138.8726  166.5655 F       1  UNL1       -0.2044
     19 C         141.1806  138.4449  160.5797 C.ar    1  UNL1        0.1351
     20 C         139.9082  138.6153  159.8037 C.ar    1  UNL1        0.0550
     21 C         139.8935  138.3692  158.3241 C.ar    1  UNL1        0.1036
     22 N         141.1511  137.9527  157.6205 N.ar    1  UNL1       -0.2223
     23 C         142.4234  137.7823  158.3965 C.ar    1  UNL1        0.2001
     24 N         142.4381  138.0284  159.8761 N.ar    1  UNL1       -0.2090
@<TRIPOS>BOND
     1     2     1    1
     2     2     3    1
     3     3     4    1
     4     4    19    1
     5    19    20   ar
     6    20    21   ar
     7    21    22   ar
     8    22    23   ar
     9    23    24   ar
    10     4     5    1
    11     5     6    1
    12     6     7    1
    13     7    10    1
    14    10    11   ar
    15    11    12   ar
    16    12    13    1
    17    12    14   ar
    18    14    15    1
    19    14    16   ar
    20    16    17   ar
    21    17    18    1
    22     7     2    1
    23    17    10   ar
    24    24    19   ar
    25     1     8    1
    26     1     9    1
@<TRIPOS>MOLECULE
*****
 24 26 0 0 0
SMALL
GASTEIGER

@<TRIPOS>ATOM
      1 N         139.1719  142.1884  165.2803 N.3     1  UNL1       -0.3206
      2 C         140.4667  141.4336  165.2193 C.3     1  UNL1        0.0750
      3 C         140.9984  140.9620  163.8984 C.3     1  UNL1        0.1079
      4 N         142.2932  140.2071  163.8375 N.pl3   1  UNL1       -0.2918
      5 C         143.0563  139.9239  165.0974 C.3     1  UNL1        0.0926
      6 C         142.5245  140.3955  166.4183 C.3     1  UNL1        0.0273
      7 C         141.2297  141.1503  166.4793 C.3     1  UNL1        0.0422
      8 H         138.7927  142.2898  164.3388 H       1  UNL1        0.1189
      9 H         139.3351  143.1115  165.6823 H       1  UNL1        0.1189
     10 C         140.6980  141.6220  167.8003 C.ar    1  UNL1        0.0087
     11 C         141.0653  142.9826  168.3139 C.ar    1  UNL1        0.0300
     12 C         140.5336  143.4542  169.6349 C.ar    1  UNL1        0.1672
     13 F         140.9009  144.8148  170.1486 F       1  UNL1       -0.2018
     14 C         139.6347  142.5652  170.4422 C.ar    1  UNL1        0.1696
     15 F         139.1030  143.0368  171.7631 F       1  UNL1       -0.2017
     16 C         139.2674  141.2046  169.9285 C.ar    1  UNL1        0.0612
     17 C         139.7991  140.7330  168.6075 C.ar    1  UNL1        0.1386
     18 F         139.4319  139.3724  168.0938 F       1  UNL1       -0.2044
     19 C         142.8249  139.7355  162.5165 C.ar    1  UNL1        0.1351
     20 C         142.9740  138.2671  162.2491 C.ar    1  UNL1        0.0550
     21 C         143.5056  137.7954  160.9282 C.ar    1  UNL1        0.1036
     22 N         143.8883  138.7922  159.8746 N.ar    1  UNL1       -0.2223
     23 C         143.7392  140.2607  160.1419 C.ar    1  UNL1        0.2001
     24 N         143.2075  140.7323  161.4629 N.ar    1  UNL1       -0.2090
@<TRIPOS>BOND
     1     2     1    1
     2     2     3    1
     3     3     4    1
     4     4    19    1
     5    19    20   ar
     6    20    21   ar
     7    21    22   ar
     8    22    23   ar
     9    23    24   ar
    10     4     5    1
    11     5     6    1
    12     6     7    1
    13     7    10    1
    14    10    11   ar
    15    11    12   ar
    16    12    13    1
    17    12    14   ar
    18    14    15    1
    19    14    16   ar
    20    16    17   ar
    21    17    18    1
    22     7     2    1
    23    17    10   ar
    24    24    19   ar
    25     1     8    1
    26     1     9    1
@<TRIPOS>MOLECULE
*****
 24 26 0 0 0
SMALL
GASTEIGER

@<TRIPOS>ATOM
      1 N         143.2980  138.7647  167.1777 N.3     1  UNL1       -0.3206
      2 C         142.7179  139.5049  166.0091 C.3     1  UNL1        0.0750
      3 C         143.0683  139.0913  164.6105 C.3     1  UNL1        0.1079
      4 N         142.4882  139.8316  163.4419 N.pl3   1  UNL1       -0.2918
      5 C         141.5578  140.9854  163.6719 C.3     1  UNL1        0.0926
      6 C         141.2074  141.3990  165.0705 C.3     1  UNL1        0.0273
      7 C         141.7875  140.6587  166.2391 C.3     1  UNL1        0.0422
      8 H         143.9035  138.0167  166.8397 H       1  UNL1        0.1189
      9 H         142.5433  138.3652  167.7356 H       1  UNL1        0.1189
     10 C         141.4371  141.0724  167.6378 C.ar    1  UNL1        0.0087
     11 C         140.1821  140.5593  168.2795 C.ar    1  UNL1        0.0300
     12 C         139.8317  140.9729  169.6780 C.ar    1  UNL1        0.1672
     13 F         138.5768  140.4597  170.3197 F       1  UNL1       -0.2018
     14 C         140.7363  141.8997  170.4350 C.ar    1  UNL1        0.1696
     15 F         140.3858  142.3133  171.8336 F       1  UNL1       -0.2017
     16 C         141.9912  142.4128  169.7933 C.ar    1  UNL1        0.0612
     17 C         142.3416  141.9991  168.3946 C.ar    1  UNL1        0.1386
     18 F         143.5966  142.5123  167.7529 F       1  UNL1       -0.2044
     19 C         142.8386  139.4179  162.0432 C.ar    1  UNL1        0.1351
     20 C         143.3657  140.4315  161.0712 C.ar    1  UNL1        0.0550
     21 C         143.7161  140.0179  159.6726 C.ar    1  UNL1        0.1036
     22 N         143.5394  138.5907  159.2460 N.ar    1  UNL1       -0.2223
     23 C         143.0123  137.5771  160.2180 C.ar    1  UNL1        0.2001
     24 N         142.6619  137.9908  161.6167 N.ar    1  UNL1       -0.2090
@<TRIPOS>BOND
     1     2     1    1
     2     2     3    1
     3     3     4    1
     4     4    19    1
     5    19    20   ar
     6    20    21   ar
     7    21    22   ar
     8    22    23   ar
     9    23    24   ar
    10     4     5    1
    11     5     6    1
    12     6     7    1
    13     7    10    1
    14    10    11   ar
    15    11    12   ar
    16    12    13    1
    17    12    14   ar
    18    14    15    1
    19    14    16   ar
    20    16    17   ar
    21    17    18    1
    22     7     2    1
    23    17    10   ar
    24    24    19   ar
    25     1     8    1
    26     1     9    1
@<TRIPOS>MOLECULE
*****
 24 26 0 0 0
SMALL
GASTEIGER

@<TRIPOS>ATOM
      1 N         143.3419  140.4208  164.8010 N.3     1  UNL1       -0.3206
      2 C         142.2762  141.4655  164.6497 C.3     1  UNL1        0.0750
      3 C         141.9002  141.9611  163.2848 C.3     1  UNL1        0.1079
      4 N         140.8345  143.0059  163.1335 N.pl3   1  UNL1       -0.2918
      5 C         140.1449  143.5550  164.3471 C.3     1  UNL1        0.0926
      6 C         140.5209  143.0594  165.7120 C.3     1  UNL1        0.0273
      7 C         141.5866  142.0146  165.8633 C.3     1  UNL1        0.0422
      8 H         143.6995  140.1641  163.8808 H       1  UNL1        0.1189
      9 H         142.9479  139.5965  165.2547 H       1  UNL1        0.1189
     10 C         141.9626  141.5190  167.2282 C.ar    1  UNL1        0.0087
     11 C         143.0420  142.2113  168.0064 C.ar    1  UNL1        0.0300
     12 C         143.4181  141.7158  169.3713 C.ar    1  UNL1        0.1672
     13 F         144.4975  142.4080  170.1495 F       1  UNL1       -0.2018
     14 C         142.7147  140.5279  169.9581 C.ar    1  UNL1        0.1696
     15 F         143.0907  140.0323  171.3230 F       1  UNL1       -0.2017
     16 C         141.6352  139.8356  169.1799 C.ar    1  UNL1        0.0612
     17 C         141.2592  140.3312  167.8149 C.ar    1  UNL1        0.1386
     18 F         140.1798  139.6389  167.0368 F       1  UNL1       -0.2044
     19 C         140.4585  143.5015  161.7686 C.ar    1  UNL1        0.1351
     20 C         140.8016  144.9030  161.3588 C.ar    1  UNL1        0.0550
     21 C         140.4256  145.3987  159.9939 C.ar    1  UNL1        0.1036
     22 N         139.7065  144.4927  159.0387 N.ar    1  UNL1       -0.2223
     23 C         139.3634  143.0912  159.4485 C.ar    1  UNL1        0.2001
     24 N         139.7395  142.5955  160.8135 N.ar    1  UNL1       -0.2090
@<TRIPOS>BOND
     1     2     1    1
     2     2     3    1
     3     3     4    1
     4     4    19    1
     5    19    20   ar
     6    20    21   ar
     7    21    22   ar
     8    22    23   ar
     9    23    24   ar
    10     4     5    1
    11     5     6    1
    12     6     7    1
    13     7    10    1
    14    10    11   ar
    15    11    12   ar
    16    12    13    1
    17    12    14   ar
    18    14    15    1
    19    14    16   ar
    20    16    17   ar
    21    17    18    1
    22     7     2    1
    23    17    10   ar
    24    24    19   ar
    25     1     8    1
    26     1     9    1
@<TRIPOS>MOLECULE
*****
 24 26 0 0 0
SMALL
GASTEIGER

@<TRIPOS>ATOM
      1 N         142.4233  142.2005  163.6867 N.3     1  UNL1       -0.3206
      2 C         142.3675  141.2654  164.8582 C.3     1  UNL1        0.0750
      3 C         142.2595  141.8130  166.2504 C.3     1  UNL1        0.1079
      4 N         142.2037  140.8778  167.4219 N.pl3   1  UNL1       -0.2918
      5 C         142.2560  139.3951  167.2012 C.3     1  UNL1        0.0926
      6 C         142.3641  138.8476  165.8089 C.3     1  UNL1        0.0273
      7 C         142.4198  139.7827  164.6374 C.3     1  UNL1        0.0422
      8 H         142.3766  143.1640  164.0182 H       1  UNL1        0.1189
      9 H         141.6349  142.0158  163.0664 H       1  UNL1        0.1189
     10 C         142.5279  139.2350  163.2451 C.ar    1  UNL1        0.0087
     11 C         141.2863  138.9390  162.4572 C.ar    1  UNL1        0.0300
     12 C         141.3943  138.3914  161.0649 C.ar    1  UNL1        0.1672
     13 F         140.1527  138.0953  160.2770 F       1  UNL1       -0.2018
     14 C         142.7439  138.1398  160.4605 C.ar    1  UNL1        0.1696
     15 F         142.8519  137.5922  159.0683 F       1  UNL1       -0.2017
     16 C         143.9855  138.4358  161.2484 C.ar    1  UNL1        0.0612
     17 C         143.8774  138.9835  162.6407 C.ar    1  UNL1        0.1386
     18 F         145.1190  139.2796  163.4286 F       1  UNL1       -0.2044
     19 C         142.0957  141.4255  168.8143 C.ar    1  UNL1        0.1351
     20 C         143.0861  142.4424  169.2991 C.ar    1  UNL1        0.0550
     21 C         142.9781  142.9900  170.6914 C.ar    1  UNL1        0.1036
     22 N         141.8796  142.5208  171.5988 N.ar    1  UNL1       -0.2223
     23 C         140.8893  141.5039  171.1139 C.ar    1  UNL1        0.2001
     24 N         140.9973  140.9563  169.7216 N.ar    1  UNL1       -0.2090
@<TRIPOS>BOND
     1     2     1    1
     2     2     3    1
     3     3     4    1
     4     4    19    1
     5    19    20   ar
     6    20    21   ar
     7    21    22   ar
     8    22    23   ar
     9    23    24   ar
    10     4     5    1
    11     5     6    1
    12     6     7    1
    13     7    10    1
    14    10    11   ar
    15    11    12   ar
    16    12    13    1
    17    12    14   ar
    18    14    15    1
    19    14    16   ar
    20    16    17   ar
    21    17    18    1
    22     7     2    1
    23    17    10   ar
    24    24    19   ar
    25     1     8    1
    26     1     9    1
@<TRIPOS>MOLECULE
*****
 24 26 0 0 0
SMALL
GASTEIGER

@<TRIPOS>ATOM
      1 N         138.8330  137.7047  165.2178 N.3     1  UNL1       -0.3206
      2 C         139.4363  139.0398  165.5394 C.3     1  UNL1        0.0750
      3 C         139.5589  139.4830  166.9672 C.3     1  UNL1        0.1079
      4 N         140.1622  140.8182  167.2888 N.pl3   1  UNL1       -0.2918
      5 C         140.6428  141.7101  166.1827 C.3     1  UNL1        0.0926
      6 C         140.5201  141.2669  164.7550 C.3     1  UNL1        0.0273
      7 C         139.9169  139.9317  164.4333 C.3     1  UNL1        0.0422
      8 H         138.5638  137.2359  166.0828 H       1  UNL1        0.1189
      9 H         139.5164  137.1338  164.7202 H       1  UNL1        0.1189
     10 C         139.7942  139.4885  163.0055 C.ar    1  UNL1        0.0087
     11 C         140.9641  138.8532  162.3143 C.ar    1  UNL1        0.0300
     12 C         140.8415  138.4100  160.8866 C.ar    1  UNL1        0.1672
     13 F         142.0114  137.7748  160.1954 F       1  UNL1       -0.2018
     14 C         139.5490  138.6021  160.1500 C.ar    1  UNL1        0.1696
     15 F         139.4264  138.1589  158.7222 F       1  UNL1       -0.2017
     16 C         138.3791  139.2374  160.8412 C.ar    1  UNL1        0.0612
     17 C         138.5017  139.6806  162.2690 C.ar    1  UNL1        0.1386
     18 F         137.3318  140.3158  162.9602 F       1  UNL1       -0.2044
     19 C         140.2848  141.2614  168.7166 C.ar    1  UNL1        0.1351
     20 C         140.5969  140.2597  169.7887 C.ar    1  UNL1        0.0550
     21 C         140.7195  140.7029  171.2164 C.ar    1  UNL1        0.1036
     22 N         140.5301  142.1478  171.5722 N.ar    1  UNL1       -0.2223
     23 C         140.2181  143.1494  170.5002 C.ar    1  UNL1        0.2001
     24 N         140.0955  142.7062  169.0723 N.ar    1  UNL1       -0.2090
@<TRIPOS>BOND
     1     2     1    1
     2     2     3    1
     3     3     4    1
     4     4    19    1
     5    19    20   ar
     6    20    21   ar
     7    21    22   ar
     8    22    23   ar
     9    23    24   ar
    10     4     5    1
    11     5     6    1
    12     6     7    1
    13     7    10    1
    14    10    11   ar
    15    11    12   ar
    16    12    13    1
    17    12    14   ar
    18    14    15    1
    19    14    16   ar
    20    16    17   ar
    21    17    18    1
    22     7     2    1
    23    17    10   ar
    24    24    19   ar
    25     1     8    1
    26     1     9    1
@<TRIPOS>MOLECULE
*****
 24 26 0 0 0
SMALL
GASTEIGER

@<TRIPOS>ATOM
      1 N         138.8437  137.7493  165.1568 N.3     1  UNL1       -0.3206
      2 C         139.3957  139.1047  165.4858 C.3     1  UNL1        0.0750
      3 C         139.5525  139.5233  166.9176 C.3     1  UNL1        0.1079
      4 N         140.1044  140.8787  167.2466 N.pl3   1  UNL1       -0.2918
      5 C         140.4996  141.8155  166.1438 C.3     1  UNL1        0.0926
      6 C         140.3428  141.3969  164.7120 C.3     1  UNL1        0.0273
      7 C         139.7908  140.0415  164.3830 C.3     1  UNL1        0.0422
      8 H         138.6304  137.2502  166.0204 H       1  UNL1        0.1189
      9 H         139.5333  137.2222  164.6210 H       1  UNL1        0.1189
     10 C         139.6340  139.6229  162.9511 C.ar    1  UNL1        0.0087
     11 C         138.3324  139.8510  162.2413 C.ar    1  UNL1        0.0300
     12 C         138.1756  139.4325  160.8094 C.ar    1  UNL1        0.1672
     13 F         136.8740  139.6606  160.0996 F       1  UNL1       -0.2018
     14 C         139.3203  138.7858  160.0873 C.ar    1  UNL1        0.1696
     15 F         139.1635  138.3672  158.6555 F       1  UNL1       -0.2017
     16 C         140.6219  138.5577  160.7972 C.ar    1  UNL1        0.0612
     17 C         140.7787  138.9762  162.2291 C.ar    1  UNL1        0.1386
     18 F         142.0803  138.7481  162.9389 F       1  UNL1       -0.2044
     19 C         140.2612  141.2973  168.6785 C.ar    1  UNL1        0.1351
     20 C         140.1743  142.7480  169.0496 C.ar    1  UNL1        0.0550
     21 C         140.3311  143.1666  170.4814 C.ar    1  UNL1        0.1036
     22 N         140.5748  142.1344  171.5422 N.ar    1  UNL1       -0.2223
     23 C         140.6617  140.6837  171.1712 C.ar    1  UNL1        0.2001
     24 N         140.5049  140.2651  169.7393 N.ar    1  UNL1       -0.2090
@<TRIPOS>BOND
     1     2     1    1
     2     2     3    1
     3     3     4    1
     4     4    19    1
     5    19    20   ar
     6    20    21   ar
     7    21    22   ar
     8    22    23   ar
     9    23    24   ar
    10     4     5    1
    11     5     6    1
    12     6     7    1
    13     7    10    1
    14    10    11   ar
    15    11    12   ar
    16    12    13    1
    17    12    14   ar
    18    14    15    1
    19    14    16   ar
    20    16    17   ar
    21    17    18    1
    22     7     2    1
    23    17    10   ar
    24    24    19   ar
    25     1     8    1
    26     1     9    1
@<TRIPOS>MOLECULE
*****
 24 26 0 0 0
SMALL
GASTEIGER

@<TRIPOS>ATOM
      1 N         140.1405  141.7603  164.3876 N.3     1  UNL1       -0.3206
      2 C         140.4799  140.3856  163.8927 C.3     1  UNL1        0.0750
      3 C         140.5729  140.1207  162.4192 C.3     1  UNL1        0.1079
      4 N         140.9123  138.7459  161.9243 N.pl3   1  UNL1       -0.2918
      5 C         141.1585  137.6361  162.9029 C.3     1  UNL1        0.0926
      6 C         141.0654  137.9010  164.3763 C.3     1  UNL1        0.0273
      7 C         140.7261  139.2758  164.8712 C.3     1  UNL1        0.0422
      8 H         140.0069  142.3847  163.5922 H       1  UNL1        0.1189
      9 H         140.9017  142.1096  164.9699 H       1  UNL1        0.1189
     10 C         140.6330  139.5406  166.3448 C.ar    1  UNL1        0.0087
     11 C         141.8830  139.7000  167.1585 C.ar    1  UNL1        0.0300
     12 C         141.7899  139.9648  168.6320 C.ar    1  UNL1        0.1672
     13 F         143.0399  140.1242  169.4458 F       1  UNL1       -0.2018
     14 C         140.4469  140.0704  169.2918 C.ar    1  UNL1        0.1696
     15 F         140.3539  140.3352  170.7652 F       1  UNL1       -0.2017
     16 C         139.1970  139.9110  168.4780 C.ar    1  UNL1        0.0612
     17 C         139.2900  139.6462  167.0045 C.ar    1  UNL1        0.1386
     18 F         138.0401  139.4868  166.1907 F       1  UNL1       -0.2044
     19 C         141.0054  138.4811  160.4508 C.ar    1  UNL1        0.1351
     20 C         139.7777  138.5713  159.5936 C.ar    1  UNL1        0.0550
     21 C         139.8708  138.3064  158.1201 C.ar    1  UNL1        0.1036
     22 N         141.1915  137.9513  157.5038 N.ar    1  UNL1       -0.2223
     23 C         142.4191  137.8611  158.3610 C.ar    1  UNL1        0.2001
     24 N         142.3260  138.1260  159.8345 N.ar    1  UNL1       -0.2090
@<TRIPOS>BOND
     1     2     1    1
     2     2     3    1
     3     3     4    1
     4     4    19    1
     5    19    20   ar
     6    20    21   ar
     7    21    22   ar
     8    22    23   ar
     9    23    24   ar
    10     4     5    1
    11     5     6    1
    12     6     7    1
    13     7    10    1
    14    10    11   ar
    15    11    12   ar
    16    12    13    1
    17    12    14   ar
    18    14    15    1
    19    14    16   ar
    20    16    17   ar
    21    17    18    1
    22     7     2    1
    23    17    10   ar
    24    24    19   ar
    25     1     8    1
    26     1     9    1
