@<TRIPOS>MOLECULE
*****
 35 39 0 0 0
SMALL
GASTEIGER

@<TRIPOS>ATOM
      1 N         138.0174  140.1236  162.4134 N.3     1  UNL1       -0.2710
      2 C         138.2325  140.8998  161.1480 C.3     1  UNL1        0.0735
      3 C         138.1565  142.3978  161.1649 C.3     1  UNL1        0.0331
      4 C         137.8655  143.1195  162.4472 C.3     1  UNL1        0.0570
      5 C         137.6504  142.3433  163.7126 C.3     1  UNL1        0.0331
      6 C         137.7264  140.8453  163.6957 C.3     1  UNL1        0.0735
      7 N         137.7896  144.6175  162.4642 N.3     1  UNL1       -0.2934
      8 H         137.1958  144.8733  163.2531 H       1  UNL1        0.1236
      9 C         139.0442  145.4307  162.5850 C.3     1  UNL1        0.1152
     10 C         140.3569  144.7511  162.8395 C.ar    1  UNL1        0.0782
     11 C         141.2708  144.4320  161.6937 C.ar    1  UNL1        0.0562
     12 C         142.5836  143.7523  161.9483 C.ar    1  UNL1        0.1752
     13 C         142.9824  143.3918  163.3487 C.ar    1  UNL1        0.1914
     14 C         142.0684  143.7109  164.4945 C.ar    1  UNL1        0.1384
     15 N         140.7557  144.3906  164.2399 N.ar    1  UNL1       -0.2434
     16 O         144.2951  142.7121  163.6032 O.3     1  UNL1       -0.4668
     17 C         145.2090  142.3930  162.4574 C.3     1  UNL1        0.2527
     18 C         144.8103  142.7535  161.0571 C.3     1  UNL1        0.2526
     19 O         143.4975  143.4332  160.8025 O.3     1  UNL1       -0.4683
     20 C         138.0933  138.6256  162.3964 C.3     1  UNL1        0.0970
     21 C         138.8480  137.9007  163.4712 C.3     1  UNL1        0.1278
     22 C         139.9648  139.5832  167.4925 C.ar    1  UNL1        0.1402
     23 C         141.3906  139.9470  167.7836 C.ar    1  UNL1        0.0370
     24 C         142.4442  139.7499  166.7341 C.ar    1  UNL1        0.0057
     25 C         142.0719  139.1891  165.3937 C.ar    1  UNL1        0.0298
     26 C         143.1254  138.9920  164.3443 C.ar    1  UNL1        0.0654
     27 C         144.5512  139.3558  164.6353 C.3     1  UNL1        0.0523
     28 N         142.7531  138.4312  163.0039 N.ar    1  UNL1       -0.1966
     29 C         141.3273  138.0674  162.7128 C.ar    1  UNL1        0.3498
     30 O         140.9550  137.5065  161.3723 O.2     1  UNL1       -0.2445
     31 N         140.2737  138.2644  163.7622 N.ar    1  UNL1       -0.2784
     32 C         140.6461  138.8253  165.1027 C.ar    1  UNL1        0.0681
     33 C         139.5926  139.0224  166.1521 C.ar    1  UNL1        0.0542
     34 C         139.2298  140.5503  169.7891 C.3     1  UNL1        0.2525
     35 O         138.9113  139.7803  168.5420 O.3     1  UNL1       -0.4714
@<TRIPOS>BOND
     1    34    35    1
     2    35    22    1
     3    22    23   ar
     4    23    24   ar
     5    24    25   ar
     6    25    26   ar
     7    26    27    1
     8    26    28   ar
     9    28    29   ar
    10    29    30    2
    11    29    31   ar
    12    31    21    1
    13    21    20    1
    14    20     1    1
    15     1     2    1
    16     2     3    1
    17     3     4    1
    18     4     7    1
    19     7     9    1
    20     9    10    1
    21    10    11   ar
    22    11    12   ar
    23    12    13   ar
    24    13    14   ar
    25    14    15   ar
    26    13    16    1
    27    16    17    1
    28    17    18    1
    29    18    19    1
    30     4     5    1
    31     5     6    1
    32    31    32   ar
    33    32    33   ar
    34    33    22   ar
    35    32    25   ar
    36     6     1    1
    37    15    10   ar
    38    19    12    1
    39     7     8    1
@<TRIPOS>MOLECULE
*****
 35 39 0 0 0
SMALL
GASTEIGER

@<TRIPOS>ATOM
      1 N         142.0068  138.0306  164.0357 N.3     1  UNL1       -0.2710
      2 C         142.9674  138.4891  165.0926 C.3     1  UNL1        0.0735
      3 C         144.1471  139.3361  164.7174 C.3     1  UNL1        0.0331
      4 C         144.3662  139.7246  163.2853 C.3     1  UNL1        0.0570
      5 C         143.4056  139.2662  162.2284 C.3     1  UNL1        0.0331
      6 C         142.2259  138.4192  162.6036 C.3     1  UNL1        0.0735
      7 N         145.5460  140.5717  162.9101 N.3     1  UNL1       -0.2934
      8 H         145.6104  140.5526  161.8923 H       1  UNL1        0.1236
      9 C         145.5945  142.0138  163.3200 C.3     1  UNL1        0.1152
     10 C         144.3803  142.8800  163.1609 C.ar    1  UNL1        0.0782
     11 C         143.8657  143.2058  161.7902 C.ar    1  UNL1        0.0562
     12 C         142.6514  144.0719  161.6311 C.ar    1  UNL1        0.1752
     13 C         141.9518  144.6124  162.8430 C.ar    1  UNL1        0.1914
     14 C         142.4664  144.2867  164.2137 C.ar    1  UNL1        0.1384
     15 N         143.6807  143.4204  164.3727 N.ar    1  UNL1       -0.2434
     16 O         140.7375  145.4786  162.6839 O.3     1  UNL1       -0.4668
     17 C         140.2229  145.8044  161.3132 C.3     1  UNL1        0.2527
     18 C         140.9225  145.2639  160.1014 C.3     1  UNL1        0.2526
     19 O         142.1368  144.3977  160.2604 O.3     1  UNL1       -0.4683
     20 C         140.8271  137.1835  164.4110 C.3     1  UNL1        0.0970
     21 C         139.5659  137.8298  164.9028 C.3     1  UNL1        0.1278
     22 C         140.4753  141.6036  167.1790 C.ar    1  UNL1        0.1402
     23 C         140.0495  142.9324  166.6286 C.ar    1  UNL1        0.0370
     24 C         139.3207  143.0033  165.3195 C.ar    1  UNL1        0.0057
     25 C         139.0175  141.7454  164.5608 C.ar    1  UNL1        0.0298
     26 C         138.2887  141.8163  163.2517 C.ar    1  UNL1        0.0654
     27 C         137.8630  143.1452  162.7013 C.3     1  UNL1        0.0523
     28 N         137.9856  140.5584  162.4929 N.ar    1  UNL1       -0.1966
     29 C         138.4113  139.2295  163.0433 C.ar    1  UNL1        0.3498
     30 O         138.1082  137.9716  162.2846 O.2     1  UNL1       -0.2445
     31 N         139.1402  139.1586  164.3524 N.ar    1  UNL1       -0.2784
     32 C         139.4433  140.4166  165.1111 C.ar    1  UNL1        0.0681
     33 C         140.1721  140.3457  166.4202 C.ar    1  UNL1        0.0542
     34 C         142.4859  142.2891  168.6747 C.3     1  UNL1        0.2525
     35 O         141.2041  141.5327  168.4881 O.3     1  UNL1       -0.4714
@<TRIPOS>BOND
     1    34    35    1
     2    35    22    1
     3    22    23   ar
     4    23    24   ar
     5    24    25   ar
     6    25    26   ar
     7    26    27    1
     8    26    28   ar
     9    28    29   ar
    10    29    30    2
    11    29    31   ar
    12    31    21    1
    13    21    20    1
    14    20     1    1
    15     1     2    1
    16     2     3    1
    17     3     4    1
    18     4     7    1
    19     7     9    1
    20     9    10    1
    21    10    11   ar
    22    11    12   ar
    23    12    13   ar
    24    13    14   ar
    25    14    15   ar
    26    13    16    1
    27    16    17    1
    28    17    18    1
    29    18    19    1
    30     4     5    1
    31     5     6    1
    32    31    32   ar
    33    32    33   ar
    34    33    22   ar
    35    32    25   ar
    36     6     1    1
    37    15    10   ar
    38    19    12    1
    39     7     8    1
@<TRIPOS>MOLECULE
*****
 35 39 0 0 0
SMALL
GASTEIGER

@<TRIPOS>ATOM
      1 N         143.0348  144.1548  162.5696 N.3     1  UNL1       -0.2710
      2 C         142.4060  145.0748  163.5736 C.3     1  UNL1        0.0735
      3 C         140.9458  145.4043  163.4777 C.3     1  UNL1        0.0331
      4 C         140.1145  144.8137  162.3778 C.3     1  UNL1        0.0570
      5 C         140.7433  143.8936  161.3737 C.3     1  UNL1        0.0331
      6 C         142.2035  143.5642  161.4697 C.3     1  UNL1        0.0735
      7 N         138.6542  145.1432  162.2818 N.3     1  UNL1       -0.2934
      8 H         138.3924  145.0381  161.3016 H       1  UNL1        0.1236
      9 C         137.6550  144.3622  163.0829 C.3     1  UNL1        0.1152
     10 C         137.9019  142.9135  163.3830 C.ar    1  UNL1        0.0782
     11 C         137.7673  141.8888  162.2958 C.ar    1  UNL1        0.0562
     12 C         138.0142  140.4401  162.5959 C.ar    1  UNL1        0.1752
     13 C         138.3958  140.0159  163.9833 C.ar    1  UNL1        0.1914
     14 C         138.5305  141.0406  165.0704 C.ar    1  UNL1        0.1384
     15 N         138.2835  142.4894  164.7702 N.ar    1  UNL1       -0.2434
     16 O         138.6428  138.5672  164.2834 O.3     1  UNL1       -0.4668
     17 C         138.5082  137.5425  163.1962 C.3     1  UNL1        0.2527
     18 C         138.1266  137.9666  161.8090 C.3     1  UNL1        0.2526
     19 O         137.8796  139.4154  161.5088 O.3     1  UNL1       -0.4683
     20 C         144.4951  143.8253  162.6656 C.3     1  UNL1        0.0970
     21 C         144.9390  142.5893  163.3902 C.3     1  UNL1        0.1278
     22 C         142.7265  138.6719  163.2978 C.ar    1  UNL1        0.1402
     23 C         141.9785  138.2042  164.5109 C.ar    1  UNL1        0.0370
     24 C         141.9679  139.0424  165.7548 C.ar    1  UNL1        0.0057
     25 C         142.7054  140.3482  165.7856 C.ar    1  UNL1        0.0298
     26 C         142.6948  141.1863  167.0296 C.ar    1  UNL1        0.0654
     27 C         141.9467  140.7187  168.2427 C.3     1  UNL1        0.0523
     28 N         143.4323  142.4921  167.0604 N.ar    1  UNL1       -0.1966
     29 C         144.1804  142.9598  165.8473 C.ar    1  UNL1        0.3498
     30 O         144.9179  144.2656  165.8781 O.2     1  UNL1       -0.2445
     31 N         144.1910  142.1217  164.6033 N.ar    1  UNL1       -0.2784
     32 C         143.4534  140.8158  164.5725 C.ar    1  UNL1        0.0681
     33 C         143.4640  139.9776  163.3286 C.ar    1  UNL1        0.0542
     34 C         143.9634  137.7870  161.1914 C.3     1  UNL1        0.2525
     35 O         142.7371  137.8337  162.0538 O.3     1  UNL1       -0.4714
@<TRIPOS>BOND
     1    34    35    1
     2    35    22    1
     3    22    23   ar
     4    23    24   ar
     5    24    25   ar
     6    25    26   ar
     7    26    27    1
     8    26    28   ar
     9    28    29   ar
    10    29    30    2
    11    29    31   ar
    12    31    21    1
    13    21    20    1
    14    20     1    1
    15     1     2    1
    16     2     3    1
    17     3     4    1
    18     4     7    1
    19     7     9    1
    20     9    10    1
    21    10    11   ar
    22    11    12   ar
    23    12    13   ar
    24    13    14   ar
    25    14    15   ar
    26    13    16    1
    27    16    17    1
    28    17    18    1
    29    18    19    1
    30     4     5    1
    31     5     6    1
    32    31    32   ar
    33    32    33   ar
    34    33    22   ar
    35    32    25   ar
    36     6     1    1
    37    15    10   ar
    38    19    12    1
    39     7     8    1
@<TRIPOS>MOLECULE
*****
 35 39 0 0 0
SMALL
GASTEIGER

@<TRIPOS>ATOM
      1 N         142.9773  144.3343  162.2794 N.3     1  UNL1       -0.2710
      2 C         142.3164  144.9708  163.4661 C.3     1  UNL1        0.0735
      3 C         140.8424  145.2477  163.4447 C.3     1  UNL1        0.0331
      4 C         140.0292  144.8882  162.2367 C.3     1  UNL1        0.0570
      5 C         140.6900  144.2518  161.0500 C.3     1  UNL1        0.0331
      6 C         142.1641  143.9748  161.0714 C.3     1  UNL1        0.0735
      7 N         138.5551  145.1652  162.2153 N.3     1  UNL1       -0.2934
      8 H         138.2494  145.0580  161.2481 H       1  UNL1        0.1236
      9 C         137.6252  144.3426  163.0570 C.3     1  UNL1        0.1152
     10 C         137.8202  142.8588  163.1590 C.ar    1  UNL1        0.0782
     11 C         138.1317  142.2328  164.4860 C.ar    1  UNL1        0.0562
     12 C         138.3267  140.7490  164.5880 C.ar    1  UNL1        0.1752
     13 C         138.2102  139.8913  163.3629 C.ar    1  UNL1        0.1914
     14 C         137.8987  140.5174  162.0359 C.ar    1  UNL1        0.1384
     15 N         137.7037  142.0012  161.9339 N.ar    1  UNL1       -0.2434
     16 O         138.4053  138.4075  163.4648 O.3     1  UNL1       -0.4668
     17 C         138.7168  137.7815  164.7919 C.3     1  UNL1        0.2527
     18 C         138.8333  138.6391  166.0169 C.3     1  UNL1        0.2526
     19 O         138.6383  140.1230  165.9150 O.3     1  UNL1       -0.4683
     20 C         144.4514  144.0574  162.3008 C.3     1  UNL1        0.0970
     21 C         144.9521  142.6500  162.1646 C.3     1  UNL1        0.1278
     22 C         143.4163  138.9382  160.1364 C.ar    1  UNL1        0.1402
     23 C         142.7981  137.8402  160.9501 C.ar    1  UNL1        0.0370
     24 C         142.6918  137.9794  162.4398 C.ar    1  UNL1        0.0057
     25 C         143.2037  139.2166  163.1159 C.ar    1  UNL1        0.0298
     26 C         143.0975  139.3558  164.6056 C.ar    1  UNL1        0.0654
     27 C         142.4793  138.2578  165.4193 C.3     1  UNL1        0.0523
     28 N         143.6094  140.5931  165.2817 N.ar    1  UNL1       -0.1966
     29 C         144.2276  141.6912  164.4680 C.ar    1  UNL1        0.3498
     30 O         144.7395  142.9284  165.1441 O.2     1  UNL1       -0.2445
     31 N         144.3339  141.5520  162.9783 N.ar    1  UNL1       -0.2784
     32 C         143.8219  140.3147  162.3022 C.ar    1  UNL1        0.0681
     33 C         143.9282  140.1754  160.8125 C.ar    1  UNL1        0.0542
     34 C         142.6139  137.8564  157.9148 C.3     1  UNL1        0.2525
     35 O         143.5226  138.7990  158.6467 O.3     1  UNL1       -0.4714
@<TRIPOS>BOND
     1    34    35    1
     2    35    22    1
     3    22    23   ar
     4    23    24   ar
     5    24    25   ar
     6    25    26   ar
     7    26    27    1
     8    26    28   ar
     9    28    29   ar
    10    29    30    2
    11    29    31   ar
    12    31    21    1
    13    21    20    1
    14    20     1    1
    15     1     2    1
    16     2     3    1
    17     3     4    1
    18     4     7    1
    19     7     9    1
    20     9    10    1
    21    10    11   ar
    22    11    12   ar
    23    12    13   ar
    24    13    14   ar
    25    14    15   ar
    26    13    16    1
    27    16    17    1
    28    17    18    1
    29    18    19    1
    30     4     5    1
    31     5     6    1
    32    31    32   ar
    33    32    33   ar
    34    33    22   ar
    35    32    25   ar
    36     6     1    1
    37    15    10   ar
    38    19    12    1
    39     7     8    1
@<TRIPOS>MOLECULE
*****
 35 39 0 0 0
SMALL
GASTEIGER

@<TRIPOS>ATOM
      1 N         137.9149  142.9508  162.7058 N.3     1  UNL1       -0.2710
      2 C         137.7039  141.9133  163.7684 C.3     1  UNL1        0.0735
      3 C         137.7253  140.4571  163.4095 C.3     1  UNL1        0.0331
      4 C         137.9578  140.0383  161.9881 C.3     1  UNL1        0.0570
      5 C         138.1688  141.0758  160.9255 C.3     1  UNL1        0.0331
      6 C         138.1474  142.5320  161.2844 C.3     1  UNL1        0.0735
      7 N         137.9793  138.5820  161.6292 N.3     1  UNL1       -0.2934
      8 H         137.2514  138.4405  160.9288 H       1  UNL1        0.1236
      9 C         139.2316  137.9624  161.0834 C.3     1  UNL1        0.1152
     10 C         140.5610  138.2976  161.6919 C.ar    1  UNL1        0.0782
     11 C         140.8019  138.0486  163.1514 C.ar    1  UNL1        0.0562
     12 C         142.1312  138.3838  163.7600 C.ar    1  UNL1        0.1752
     13 C         143.2198  138.9679  162.9091 C.ar    1  UNL1        0.1914
     14 C         142.9789  139.2168  161.4496 C.ar    1  UNL1        0.1384
     15 N         141.6494  138.8816  160.8411 N.ar    1  UNL1       -0.2434
     16 O         144.5492  139.3030  163.5177 O.3     1  UNL1       -0.4668
     17 C         144.7901  139.0541  164.9771 C.3     1  UNL1        0.2527
     18 C         143.7016  138.4700  165.8280 C.3     1  UNL1        0.2526
     19 O         142.3721  138.1348  165.2194 O.3     1  UNL1       -0.4683
     20 C         137.8934  144.4071  163.0647 C.3     1  UNL1        0.0970
     21 C         139.0878  145.0360  163.7190 C.3     1  UNL1        0.1278
     22 C         141.0742  142.4926  166.8551 C.ar    1  UNL1        0.1402
     23 C         142.4445  141.9339  166.6101 C.ar    1  UNL1        0.0370
     24 C         143.1527  142.2230  165.3198 C.ar    1  UNL1        0.0057
     25 C         142.4906  143.0707  164.2744 C.ar    1  UNL1        0.0298
     26 C         143.1988  143.3598  162.9841 C.ar    1  UNL1        0.0654
     27 C         144.5691  142.8010  162.7391 C.3     1  UNL1        0.0523
     28 N         142.5366  144.2075  161.9387 N.ar    1  UNL1       -0.1966
     29 C         141.1662  144.7663  162.1837 C.ar    1  UNL1        0.3498
     30 O         140.5041  145.6141  161.1383 O.2     1  UNL1       -0.2445
     31 N         140.4581  144.4773  163.4740 N.ar    1  UNL1       -0.2784
     32 C         141.1203  143.6294  164.5194 C.ar    1  UNL1        0.0681
     33 C         140.4121  143.3404  165.8097 C.ar    1  UNL1        0.0542
     34 C         140.4938  143.1526  169.3000 C.3     1  UNL1        0.2525
     35 O         140.3661  142.2036  168.1454 O.3     1  UNL1       -0.4714
@<TRIPOS>BOND
     1    34    35    1
     2    35    22    1
     3    22    23   ar
     4    23    24   ar
     5    24    25   ar
     6    25    26   ar
     7    26    27    1
     8    26    28   ar
     9    28    29   ar
    10    29    30    2
    11    29    31   ar
    12    31    21    1
    13    21    20    1
    14    20     1    1
    15     1     2    1
    16     2     3    1
    17     3     4    1
    18     4     7    1
    19     7     9    1
    20     9    10    1
    21    10    11   ar
    22    11    12   ar
    23    12    13   ar
    24    13    14   ar
    25    14    15   ar
    26    13    16    1
    27    16    17    1
    28    17    18    1
    29    18    19    1
    30     4     5    1
    31     5     6    1
    32    31    32   ar
    33    32    33   ar
    34    33    22   ar
    35    32    25   ar
    36     6     1    1
    37    15    10   ar
    38    19    12    1
    39     7     8    1
@<TRIPOS>MOLECULE
*****
 35 39 0 0 0
SMALL
GASTEIGER

@<TRIPOS>ATOM
      1 N         140.2379  143.9079  164.0566 N.3     1  UNL1       -0.2710
      2 C         140.9210  143.1180  165.1334 C.3     1  UNL1        0.0735
      3 C         142.3920  142.8399  165.0410 C.3     1  UNL1        0.0331
      4 C         143.1800  143.3517  163.8718 C.3     1  UNL1        0.0570
      5 C         142.4970  144.1416  162.7950 C.3     1  UNL1        0.0331
      6 C         141.0259  144.4197  162.8874 C.3     1  UNL1        0.0735
      7 N         144.6512  143.0736  163.7794 N.3     1  UNL1       -0.2934
      8 H         145.0900  143.5435  164.5712 H       1  UNL1        0.1236
      9 C         145.1488  141.6586  163.7856 C.3     1  UNL1        0.1152
     10 C         144.5375  140.6445  162.8648 C.ar    1  UNL1        0.0782
     11 C         144.4144  140.9401  161.3993 C.ar    1  UNL1        0.0562
     12 C         143.8031  139.9260  160.4785 C.ar    1  UNL1        0.1752
     13 C         143.3148  138.6164  161.0231 C.ar    1  UNL1        0.1914
     14 C         143.4379  138.3208  162.4885 C.ar    1  UNL1        0.1384
     15 N         144.0493  139.3350  163.4094 N.ar    1  UNL1       -0.2434
     16 O         142.7035  137.6023  160.1023 O.3     1  UNL1       -0.4668
     17 C         142.5804  137.8978  158.6368 C.3     1  UNL1        0.2527
     18 C         143.0686  139.2074  158.0922 C.3     1  UNL1        0.2526
     19 O         143.6799  140.2215  159.0131 O.3     1  UNL1       -0.4683
     20 C         138.7668  144.1860  164.1490 C.3     1  UNL1        0.0970
     21 C         137.7828  143.0578  164.0539 C.3     1  UNL1        0.1278
     22 C         138.5536  139.1422  166.1332 C.ar    1  UNL1        0.1402
     23 C         138.8890  137.9201  165.3307 C.ar    1  UNL1        0.0370
     24 C         138.9675  138.0033  163.8351 C.ar    1  UNL1        0.0057
     25 C         138.7106  139.3085  163.1419 C.ar    1  UNL1        0.0298
     26 C         138.7891  139.3916  161.6463 C.ar    1  UNL1        0.0654
     27 C         139.1245  138.1696  160.8438 C.3     1  UNL1        0.0523
     28 N         138.5322  140.6968  160.9532 N.ar    1  UNL1       -0.1966
     29 C         138.1967  141.9189  161.7557 C.ar    1  UNL1        0.3498
     30 O         137.9398  143.2241  161.0626 O.2     1  UNL1       -0.2445
     31 N         138.1182  141.8358  163.2514 N.ar    1  UNL1       -0.2784
     32 C         138.3752  140.5305  163.9445 C.ar    1  UNL1        0.0681
     33 C         138.2967  140.4473  165.4401 C.ar    1  UNL1        0.0542
     34 C         139.3135  139.9700  168.4757 C.3     1  UNL1        0.2525
     35 O         138.4751  139.0590  167.6289 O.3     1  UNL1       -0.4714
@<TRIPOS>BOND
     1    34    35    1
     2    35    22    1
     3    22    23   ar
     4    23    24   ar
     5    24    25   ar
     6    25    26   ar
     7    26    27    1
     8    26    28   ar
     9    28    29   ar
    10    29    30    2
    11    29    31   ar
    12    31    21    1
    13    21    20    1
    14    20     1    1
    15     1     2    1
    16     2     3    1
    17     3     4    1
    18     4     7    1
    19     7     9    1
    20     9    10    1
    21    10    11   ar
    22    11    12   ar
    23    12    13   ar
    24    13    14   ar
    25    14    15   ar
    26    13    16    1
    27    16    17    1
    28    17    18    1
    29    18    19    1
    30     4     5    1
    31     5     6    1
    32    31    32   ar
    33    32    33   ar
    34    33    22   ar
    35    32    25   ar
    36     6     1    1
    37    15    10   ar
    38    19    12    1
    39     7     8    1
@<TRIPOS>MOLECULE
*****
 35 39 0 0 0
SMALL
GASTEIGER

@<TRIPOS>ATOM
      1 N         142.8296  138.3799  163.2463 N.3     1  UNL1       -0.2710
      2 C         141.9666  137.9056  164.3778 C.3     1  UNL1        0.0735
      3 C         140.5290  137.5569  164.1294 C.3     1  UNL1        0.0331
      4 C         139.9544  137.6826  162.7496 C.3     1  UNL1        0.0570
      5 C         140.8174  138.1569  161.6181 C.3     1  UNL1        0.0331
      6 C         142.2550  138.5056  161.8665 C.3     1  UNL1        0.0735
      7 N         138.5168  137.3339  162.5011 N.3     1  UNL1       -0.2934
      8 H         138.0637  137.2851  163.4137 H       1  UNL1        0.1236
      9 C         137.6669  138.2231  161.6426 C.3     1  UNL1        0.1152
     10 C         137.8607  139.7100  161.6805 C.ar    1  UNL1        0.0782
     11 C         137.6765  140.4578  162.9677 C.ar    1  UNL1        0.0562
     12 C         137.8703  141.9448  163.0055 C.ar    1  UNL1        0.1752
     13 C         138.2484  142.6839  161.7562 C.ar    1  UNL1        0.1914
     14 C         138.4326  141.9361  160.4690 C.ar    1  UNL1        0.1384
     15 N         138.2388  140.4491  160.4312 N.ar    1  UNL1       -0.2434
     16 O         138.4422  144.1708  161.7941 O.3     1  UNL1       -0.4668
     17 C         138.2579  144.9187  163.0812 C.3     1  UNL1        0.2527
     18 C         137.8799  144.1796  164.3305 C.3     1  UNL1        0.2526
     19 O         137.6860  142.6926  164.2927 O.3     1  UNL1       -0.4683
     20 C         144.2672  138.7286  163.4947 C.3     1  UNL1        0.0970
     21 C         144.6169  139.8420  164.4371 C.3     1  UNL1        0.1278
     22 C         141.0138  140.9107  166.9121 C.ar    1  UNL1        0.1402
     23 C         140.3688  142.2559  166.7559 C.ar    1  UNL1        0.0370
     24 C         140.9249  143.2449  165.7747 C.ar    1  UNL1        0.0057
     25 C         142.1259  142.8886  164.9497 C.ar    1  UNL1        0.0298
     26 C         142.6819  143.8776  163.9685 C.ar    1  UNL1        0.0654
     27 C         142.0370  145.2228  163.8123 C.3     1  UNL1        0.0523
     28 N         143.8829  143.5214  163.1435 N.ar    1  UNL1       -0.1966
     29 C         144.5280  142.1762  163.2997 C.ar    1  UNL1        0.3498
     30 O         145.7290  141.8199  162.4748 O.2     1  UNL1       -0.2445
     31 N         143.9719  141.1872  164.2809 N.ar    1  UNL1       -0.2784
     32 C         142.7708  141.5435  165.1059 C.ar    1  UNL1        0.0681
     33 C         142.2148  140.5545  166.0871 C.ar    1  UNL1        0.0542
     34 C         140.3042  140.3020  169.3361 C.3     1  UNL1        0.2525
     35 O         140.4577  139.9217  167.8933 O.3     1  UNL1       -0.4714
@<TRIPOS>BOND
     1    34    35    1
     2    35    22    1
     3    22    23   ar
     4    23    24   ar
     5    24    25   ar
     6    25    26   ar
     7    26    27    1
     8    26    28   ar
     9    28    29   ar
    10    29    30    2
    11    29    31   ar
    12    31    21    1
    13    21    20    1
    14    20     1    1
    15     1     2    1
    16     2     3    1
    17     3     4    1
    18     4     7    1
    19     7     9    1
    20     9    10    1
    21    10    11   ar
    22    11    12   ar
    23    12    13   ar
    24    13    14   ar
    25    14    15   ar
    26    13    16    1
    27    16    17    1
    28    17    18    1
    29    18    19    1
    30     4     5    1
    31     5     6    1
    32    31    32   ar
    33    32    33   ar
    34    33    22   ar
    35    32    25   ar
    36     6     1    1
    37    15    10   ar
    38    19    12    1
    39     7     8    1
@<TRIPOS>MOLECULE
*****
 35 39 0 0 0
SMALL
GASTEIGER

@<TRIPOS>ATOM
      1 N         137.8428  140.1666  162.0387 N.3     1  UNL1       -0.2710
      2 C         138.1980  140.9737  160.8252 C.3     1  UNL1        0.0735
      3 C         138.3178  142.4655  160.9253 C.3     1  UNL1        0.0331
      4 C         138.0824  143.1503  162.2389 C.3     1  UNL1        0.0570
      5 C         137.7273  142.3432  163.4524 C.3     1  UNL1        0.0331
      6 C         137.6075  140.8514  163.3523 C.3     1  UNL1        0.0735
      7 N         138.2022  144.6422  162.3391 N.3     1  UNL1       -0.2934
      8 H         137.4577  144.9562  162.9615 H       1  UNL1        0.1236
      9 C         139.4742  145.2606  162.8389 C.3     1  UNL1        0.1152
     10 C         140.7874  144.5800  162.5898 C.ar    1  UNL1        0.0782
     11 C         141.5563  143.9912  163.7353 C.ar    1  UNL1        0.0562
     12 C         142.8695  143.3106  163.4862 C.ar    1  UNL1        0.1752
     13 C         143.4140  143.2188  162.0915 C.ar    1  UNL1        0.1914
     14 C         142.6452  143.8075  160.9460 C.ar    1  UNL1        0.1384
     15 N         141.3318  144.4881  161.1951 N.ar    1  UNL1       -0.2434
     16 O         144.7273  142.5382  161.8424 O.3     1  UNL1       -0.4668
     17 C         145.4961  141.9494  162.9880 C.3     1  UNL1        0.2527
     18 C         144.9517  142.0413  164.3826 C.3     1  UNL1        0.2526
     19 O         143.6383  142.7219  164.6318 O.3     1  UNL1       -0.4683
     20 C         137.7230  138.6747  161.9385 C.3     1  UNL1        0.0970
     21 C         138.9547  137.8319  161.7881 C.3     1  UNL1        0.1278
     22 C         143.0472  138.5693  160.0684 C.ar    1  UNL1        0.1402
     23 C         144.2176  138.7817  160.9823 C.ar    1  UNL1        0.0370
     24 C         144.0238  138.7483  162.4693 C.ar    1  UNL1        0.0057
     25 C         142.6596  138.5025  163.0426 C.ar    1  UNL1        0.0298
     26 C         142.4658  138.4690  164.5296 C.ar    1  UNL1        0.0654
     27 C         143.6362  138.6814  165.4434 C.3     1  UNL1        0.0523
     28 N         141.1017  138.2232  165.1028 N.ar    1  UNL1       -0.1966
     29 C         139.9312  138.0108  164.1890 C.ar    1  UNL1        0.3498
     30 O         138.5671  137.7650  164.7622 O.2     1  UNL1       -0.2445
     31 N         140.1250  138.0442  162.7019 N.ar    1  UNL1       -0.2784
     32 C         141.4893  138.2901  162.1287 C.ar    1  UNL1        0.0681
     33 C         141.6831  138.3235  160.6417 C.ar    1  UNL1        0.0542
     34 C         142.6948  137.4961  157.7288 C.3     1  UNL1        0.2525
     35 O         143.2410  138.6027  158.5814 O.3     1  UNL1       -0.4714
@<TRIPOS>BOND
     1    34    35    1
     2    35    22    1
     3    22    23   ar
     4    23    24   ar
     5    24    25   ar
     6    25    26   ar
     7    26    27    1
     8    26    28   ar
     9    28    29   ar
    10    29    30    2
    11    29    31   ar
    12    31    21    1
    13    21    20    1
    14    20     1    1
    15     1     2    1
    16     2     3    1
    17     3     4    1
    18     4     7    1
    19     7     9    1
    20     9    10    1
    21    10    11   ar
    22    11    12   ar
    23    12    13   ar
    24    13    14   ar
    25    14    15   ar
    26    13    16    1
    27    16    17    1
    28    17    18    1
    29    18    19    1
    30     4     5    1
    31     5     6    1
    32    31    32   ar
    33    32    33   ar
    34    33    22   ar
    35    32    25   ar
    36     6     1    1
    37    15    10   ar
    38    19    12    1
    39     7     8    1
@<TRIPOS>MOLECULE
*****
 35 39 0 0 0
SMALL
GASTEIGER

@<TRIPOS>ATOM
      1 N         141.7647  138.2122  164.5643 N.3     1  UNL1       -0.2710
      2 C         140.3478  137.9025  164.9470 C.3     1  UNL1        0.0735
      3 C         139.2889  137.8069  163.8889 C.3     1  UNL1        0.0331
      4 C         139.6469  138.0210  162.4482 C.3     1  UNL1        0.0570
      5 C         141.0638  138.3307  162.0654 C.3     1  UNL1        0.0331
      6 C         142.1227  138.4263  163.1235 C.3     1  UNL1        0.0735
      7 N         138.5880  137.9253  161.3900 N.3     1  UNL1       -0.2934
      8 H         138.1085  137.0364  161.5327 H       1  UNL1        0.1236
      9 C         137.5256  138.9800  161.2946 C.3     1  UNL1        0.1152
     10 C         137.8884  140.4266  161.4547 C.ar    1  UNL1        0.0782
     11 C         138.8704  141.0619  160.5155 C.ar    1  UNL1        0.0562
     12 C         139.2332  142.5085  160.6755 C.ar    1  UNL1        0.1752
     13 C         138.6139  143.3199  161.7748 C.ar    1  UNL1        0.1914
     14 C         137.6319  142.6846  162.7140 C.ar    1  UNL1        0.1384
     15 N         137.2692  141.2379  162.5539 N.ar    1  UNL1       -0.2434
     16 O         138.9767  144.7665  161.9348 O.3     1  UNL1       -0.4668
     17 C         139.9587  145.4018  160.9957 C.3     1  UNL1        0.2527
     18 C         140.5779  144.5905  159.8965 C.3     1  UNL1        0.2526
     19 O         140.2152  143.1438  159.7364 O.3     1  UNL1       -0.4683
     20 C         142.8236  138.3079  165.6225 C.3     1  UNL1        0.0970
     21 C         143.1253  139.6296  166.2642 C.3     1  UNL1        0.1278
     22 C         143.8194  142.7688  163.1157 C.ar    1  UNL1        0.1402
     23 C         142.8573  143.9104  162.9698 C.ar    1  UNL1        0.0370
     24 C         141.6639  144.0055  163.8736 C.ar    1  UNL1        0.0057
     25 C         141.4325  142.9592  164.9231 C.ar    1  UNL1        0.0298
     26 C         140.2391  143.0543  165.8268 C.ar    1  UNL1        0.0654
     27 C         139.2770  144.1958  165.6810 C.3     1  UNL1        0.0523
     28 N         140.0077  142.0079  166.8763 N.ar    1  UNL1       -0.1966
     29 C         140.9698  140.8663  167.0222 C.ar    1  UNL1        0.3498
     30 O         140.7385  139.8200  168.0717 O.2     1  UNL1       -0.2445
     31 N         142.1632  140.7712  166.1184 N.ar    1  UNL1       -0.2784
     32 C         142.3946  141.8176  165.0689 C.ar    1  UNL1        0.0681
     33 C         143.5880  141.7225  164.1652 C.ar    1  UNL1        0.0542
     34 C         144.8226  142.5028  160.7339 C.3     1  UNL1        0.2525
     35 O         145.0128  142.6737  162.2119 O.3     1  UNL1       -0.4714
@<TRIPOS>BOND
     1    34    35    1
     2    35    22    1
     3    22    23   ar
     4    23    24   ar
     5    24    25   ar
     6    25    26   ar
     7    26    27    1
     8    26    28   ar
     9    28    29   ar
    10    29    30    2
    11    29    31   ar
    12    31    21    1
    13    21    20    1
    14    20     1    1
    15     1     2    1
    16     2     3    1
    17     3     4    1
    18     4     7    1
    19     7     9    1
    20     9    10    1
    21    10    11   ar
    22    11    12   ar
    23    12    13   ar
    24    13    14   ar
    25    14    15   ar
    26    13    16    1
    27    16    17    1
    28    17    18    1
    29    18    19    1
    30     4     5    1
    31     5     6    1
    32    31    32   ar
    33    32    33   ar
    34    33    22   ar
    35    32    25   ar
    36     6     1    1
    37    15    10   ar
    38    19    12    1
    39     7     8    1
