@<TRIPOS>MOLECULE
*****
 41 46 0 0 0
SMALL
GASTEIGER

@<TRIPOS>ATOM
      1 C         138.2242  139.7544  159.9724 C.ar    1  UNL1        0.2020
      2 N         137.6610  140.4486  161.1770 N.ar    1  UNL1       -0.1802
      3 C         138.1461  140.0828  162.5485 C.ar    1  UNL1        0.2299
      4 C         139.1941  139.0228  162.7154 C.ar    1  UNL1        0.0886
      5 C         139.8619  138.4544  163.9324 C.ar    1  UNL1        0.0267
      6 C         140.8378  137.4089  163.4800 C.ar    1  UNL1        0.1007
      7 N         140.7731  137.3312  161.9834 N.ar    1  UNL1       -0.2267
      8 C         139.7573  138.3286  161.5108 C.ar    1  UNL1        0.1471
      9 N         139.2723  138.6944  160.1394 N.ar    1  UNL1       -0.3117
     10 H         139.6419  138.2387  159.3488 H       1  UNL1        0.1700
     11 C         139.5999  138.8603  165.3524 C.ar    1  UNL1        0.0049
     12 C         138.2633  138.5872  165.9761 C.ar    1  UNL1        0.0018
     13 C         138.0013  138.9931  167.3962 C.ar    1  UNL1        0.0223
     14 C         139.0759  139.6721  168.1926 C.ar    1  UNL1        0.1185
     15 N         139.1090  140.1834  169.6024 N.ar    1  UNL1       -0.2121
     16 C         140.4660  140.7725  169.8501 C.ar    1  UNL1        0.2062
     17 C         140.9352  141.3988  171.1297 C.3     1  UNL1        0.0950
     18 O         141.2716  140.6253  168.5933 O.2     1  UNL1       -0.4384
     19 C         140.4125  139.9452  167.5690 C.ar    1  UNL1        0.1644
     20 C         140.6744  139.5393  166.1489 C.ar    1  UNL1        0.0392
     21 N         137.7392  140.1202  158.6009 N.pl3   1  UNL1       -0.2816
     22 H         137.1157  139.5256  158.1245 H       1  UNL1        0.1551
     23 C         139.1341  143.9352  156.6644 C.ar    1  UNL1        0.0565
     24 C         139.9439  143.3117  157.7623 C.ar    1  UNL1        0.0060
     25 C         139.4790  142.0400  158.4078 C.ar    1  UNL1        0.0179
     26 C         138.2042  141.3918  157.9555 C.ar    1  UNL1        0.0849
     27 C         137.3943  142.0154  156.8575 C.ar    1  UNL1        0.1522
     28 C         137.8592  143.2870  156.2120 C.ar    1  UNL1        0.0427
     29 C         139.0651  147.5184  154.9598 C.3     1  UNL1        0.1109
     30 N         138.6002  146.2468  155.6054 N.am    1  UNL1       -0.2992
     31 C         139.5990  145.2069  156.0189 C.2     1  UNL1        0.2460
     32 O         141.0627  145.4386  155.7869 O.2     1  UNL1       -0.2701
     33 H         137.6395  146.0947  155.7576 H       1  UNL1        0.1498
     34 O         136.1194  141.3672  156.4051 O.3     1  UNL1       -0.4702
     35 C         135.4703  141.8020  155.1247 C.3     1  UNL1        0.2525
     36 O         137.5829  140.7770  163.7531 O.3     1  UNL1       -0.4639
     37 C         138.0517  142.1562  164.1113 C.3     1  UNL1        0.1675
     38 C         137.6680  143.4270  163.4130 C.3     1  UNL1        0.0436
     39 C         138.3656  144.5628  164.1009 C.3     1  UNL1        0.0038
     40 C         139.1806  143.9939  165.2244 C.3     1  UNL1        0.0038
     41 C         138.9866  142.5065  165.2308 C.3     1  UNL1        0.0436
@<TRIPOS>BOND
     1    29    30    1
     2    30    31   am
     3    31    32    2
     4    31    23    1
     5    23    24   ar
     6    24    25   ar
     7    25    26   ar
     8    26    21    1
     9    21     1    1
    10     1     2   ar
    11     2     3   ar
    12     3    36    1
    13    36    37    1
    14    37    38    1
    15    38    39    1
    16    39    40    1
    17    40    41    1
    18     3     4   ar
    19     4     5   ar
    20     5    11    1
    21    11    12   ar
    22    12    13   ar
    23    13    14   ar
    24    14    15   ar
    25    15    16   ar
    26    16    17    1
    27    16    18   ar
    28    18    19   ar
    29    19    20   ar
    30     5     6   ar
    31     6     7   ar
    32     7     8   ar
    33     8     9   ar
    34    26    27   ar
    35    27    34    1
    36    34    35    1
    37    27    28   ar
    38    28    23   ar
    39     9     1   ar
    40    41    37    1
    41     8     4    1
    42    20    11   ar
    43    19    14   ar
    44    30    33    1
    45    21    22    1
    46     9    10    1
@<TRIPOS>MOLECULE
*****
 41 46 0 0 0
SMALL
GASTEIGER

@<TRIPOS>ATOM
      1 C         142.1782  137.8706  158.7285 C.ar    1  UNL1        0.2020
      2 N         142.4487  137.4720  160.1491 N.ar    1  UNL1       -0.1802
      3 C         141.5910  138.0110  161.2555 C.ar    1  UNL1        0.2299
      4 C         140.4631  138.9485  160.9413 C.ar    1  UNL1        0.0886
      5 C         139.4563  139.6360  161.8153 C.ar    1  UNL1        0.0267
      6 C         138.5637  140.4595  160.9349 C.ar    1  UNL1        0.1007
      7 N         139.0188  140.2809  159.5168 N.ar    1  UNL1       -0.2267
      8 C         140.1926  139.3471  159.5208 C.ar    1  UNL1        0.1471
      9 N         141.0502  138.8081  158.4144 N.ar    1  UNL1       -0.3117
     10 H         140.8727  139.0697  157.4820 H       1  UNL1        0.1700
     11 C         139.3593  139.5204  163.3077 C.ar    1  UNL1        0.0049
     12 C         138.7726  138.2870  163.9278 C.ar    1  UNL1        0.0018
     13 C         138.6756  138.1714  165.4202 C.ar    1  UNL1        0.0223
     14 C         139.1652  139.2891  166.2925 C.ar    1  UNL1        0.1185
     15 N         139.1995  139.4582  167.7825 N.ar    1  UNL1       -0.2121
     16 C         139.8074  140.7961  168.0833 C.ar    1  UNL1        0.2062
     17 C         140.0341  141.3747  169.4485 C.3     1  UNL1        0.0950
     18 O         140.1489  141.4539  166.7792 O.2     1  UNL1       -0.4384
     19 C         139.7520  140.5225  165.6724 C.ar    1  UNL1        0.1644
     20 C         139.8490  140.6381  164.1800 C.ar    1  UNL1        0.0392
     21 N         143.0358  137.3317  157.6222 N.pl3   1  UNL1       -0.2816
     22 H         143.8362  137.8271  157.3339 H       1  UNL1        0.1551
     23 C         141.9498  133.4503  155.6208 C.ar    1  UNL1        0.0565
     24 C         143.0623  133.4902  156.6262 C.ar    1  UNL1        0.0060
     25 C         143.4243  134.7840  157.2933 C.ar    1  UNL1        0.0179
     26 C         142.6738  136.0379  156.9551 C.ar    1  UNL1        0.0849
     27 C         141.5614  135.9981  155.9496 C.ar    1  UNL1        0.1522
     28 C         141.1994  134.7043  155.2825 C.ar    1  UNL1        0.0427
     29 C         141.5588  129.5586  154.9486 C.3     1  UNL1        0.1109
     30 N         141.9208  130.8524  155.6157 N.am    1  UNL1       -0.2992
     31 C         141.5878  132.1565  154.9536 C.2     1  UNL1        0.2460
     32 O         140.8929  132.1669  153.6243 O.2     1  UNL1       -0.2701
     33 H         142.3769  130.8456  156.4881 H       1  UNL1        0.1498
     34 O         140.8109  137.2520  155.6113 O.3     1  UNL1       -0.4702
     35 C         139.3114  137.2423  155.5764 C.3     1  UNL1        0.2525
     36 O         141.8615  137.6124  162.6761 O.3     1  UNL1       -0.4639
     37 C         142.8688  138.3705  163.4890 C.3     1  UNL1        0.1675
     38 C         142.8557  138.5338  164.9800 C.3     1  UNL1        0.0436
     39 C         144.0449  139.3625  165.3660 C.3     1  UNL1        0.0038
     40 C         144.7930  139.7114  164.1134 C.3     1  UNL1        0.0038
     41 C         144.0661  139.0983  162.9534 C.3     1  UNL1        0.0436
@<TRIPOS>BOND
     1    29    30    1
     2    30    31   am
     3    31    32    2
     4    31    23    1
     5    23    24   ar
     6    24    25   ar
     7    25    26   ar
     8    26    21    1
     9    21     1    1
    10     1     2   ar
    11     2     3   ar
    12     3    36    1
    13    36    37    1
    14    37    38    1
    15    38    39    1
    16    39    40    1
    17    40    41    1
    18     3     4   ar
    19     4     5   ar
    20     5    11    1
    21    11    12   ar
    22    12    13   ar
    23    13    14   ar
    24    14    15   ar
    25    15    16   ar
    26    16    17    1
    27    16    18   ar
    28    18    19   ar
    29    19    20   ar
    30     5     6   ar
    31     6     7   ar
    32     7     8   ar
    33     8     9   ar
    34    26    27   ar
    35    27    34    1
    36    34    35    1
    37    27    28   ar
    38    28    23   ar
    39     9     1   ar
    40    41    37    1
    41     8     4    1
    42    20    11   ar
    43    19    14   ar
    44    30    33    1
    45    21    22    1
    46     9    10    1
@<TRIPOS>MOLECULE
*****
 41 46 0 0 0
SMALL
GASTEIGER

@<TRIPOS>ATOM
      1 C         138.4515  139.7953  159.8603 C.ar    1  UNL1        0.2020
      2 N         137.8599  140.4929  161.0492 N.ar    1  UNL1       -0.1802
      3 C         138.2808  140.1012  162.4347 C.ar    1  UNL1        0.2299
      4 C         139.2931  139.0119  162.6313 C.ar    1  UNL1        0.0886
      5 C         139.8973  138.4143  163.8674 C.ar    1  UNL1        0.0267
      6 C         140.8622  137.3474  163.4424 C.ar    1  UNL1        0.1007
      7 N         140.8544  137.2856  161.9437 N.ar    1  UNL1       -0.2267
      8 C         139.8847  138.3144  161.4424 C.ar    1  UNL1        0.1471
      9 N         139.4639  138.7060  160.0570 N.ar    1  UNL1       -0.3117
     10 H         139.8522  138.2482  159.2767 H       1  UNL1        0.1700
     11 C         139.5904  138.8136  165.2803 C.ar    1  UNL1        0.0049
     12 C         138.2665  138.4580  165.8894 C.ar    1  UNL1        0.0018
     13 C         137.9597  138.8573  167.3024 C.ar    1  UNL1        0.0223
     14 C         138.9766  139.6121  168.1062 C.ar    1  UNL1        0.1185
     15 N         138.9574  140.1359  169.5116 N.ar    1  UNL1       -0.2121
     16 C         140.2692  140.8153  169.7711 C.ar    1  UNL1        0.2062
     17 C         140.6792  141.4816  171.0509 C.3     1  UNL1        0.0950
     18 O         141.0993  140.7113  168.5260 O.2     1  UNL1       -0.4384
     19 C         140.3004  139.9677  167.4971 C.ar    1  UNL1        0.1644
     20 C         140.6072  139.5684  166.0841 C.ar    1  UNL1        0.0392
     21 N         138.0307  140.1869  158.4749 N.pl3   1  UNL1       -0.2816
     22 H         137.4715  139.5785  157.9398 H       1  UNL1        0.1551
     23 C         139.3247  144.1429  156.7644 C.ar    1  UNL1        0.0565
     24 C         137.9704  143.5897  156.4333 C.ar    1  UNL1        0.0060
     25 C         137.5390  142.2710  157.0035 C.ar    1  UNL1        0.0179
     26 C         138.4620  141.5056  157.9047 C.ar    1  UNL1        0.0849
     27 C         139.8164  142.0589  158.2357 C.ar    1  UNL1        0.1522
     28 C         140.2478  143.3775  157.6656 C.ar    1  UNL1        0.0427
     29 C         139.3748  147.4327  154.5451 C.3     1  UNL1        0.1109
     30 N         138.9435  146.1140  155.1153 N.am    1  UNL1       -0.2992
     31 C         139.7561  145.4616  156.1942 C.2     1  UNL1        0.2460
     32 O         141.0000  146.1278  156.7028 O.2     1  UNL1       -0.2701
     33 H         138.1270  145.6768  154.7814 H       1  UNL1        0.1498
     34 O         140.7395  141.2935  159.1369 O.3     1  UNL1       -0.4702
     35 C         141.3665  141.9715  160.3189 C.3     1  UNL1        0.2525
     36 O         137.6892  140.7988  163.6236 O.3     1  UNL1       -0.4639
     37 C         138.1152  142.1968  163.9615 C.3     1  UNL1        0.1675
     38 C         138.9679  142.6012  165.1274 C.3     1  UNL1        0.0436
     39 C         139.1430  144.0901  165.0793 C.3     1  UNL1        0.0038
     40 C         138.3984  144.6060  163.8837 C.3     1  UNL1        0.0038
     41 C         137.7632  143.4359  163.1929 C.3     1  UNL1        0.0436
@<TRIPOS>BOND
     1    29    30    1
     2    30    31   am
     3    31    32    2
     4    31    23    1
     5    23    24   ar
     6    24    25   ar
     7    25    26   ar
     8    26    21    1
     9    21     1    1
    10     1     2   ar
    11     2     3   ar
    12     3    36    1
    13    36    37    1
    14    37    38    1
    15    38    39    1
    16    39    40    1
    17    40    41    1
    18     3     4   ar
    19     4     5   ar
    20     5    11    1
    21    11    12   ar
    22    12    13   ar
    23    13    14   ar
    24    14    15   ar
    25    15    16   ar
    26    16    17    1
    27    16    18   ar
    28    18    19   ar
    29    19    20   ar
    30     5     6   ar
    31     6     7   ar
    32     7     8   ar
    33     8     9   ar
    34    26    27   ar
    35    27    34    1
    36    34    35    1
    37    27    28   ar
    38    28    23   ar
    39     9     1   ar
    40    41    37    1
    41     8     4    1
    42    20    11   ar
    43    19    14   ar
    44    30    33    1
    45    21    22    1
    46     9    10    1
@<TRIPOS>MOLECULE
*****
 41 46 0 0 0
SMALL
GASTEIGER

@<TRIPOS>ATOM
      1 C         142.5414  138.2066  158.4487 C.ar    1  UNL1        0.2020
      2 N         143.5270  138.2993  159.5757 N.ar    1  UNL1       -0.1802
      3 C         143.0484  138.5800  160.9694 C.ar    1  UNL1        0.2299
      4 C         141.5843  138.7680  161.2360 C.ar    1  UNL1        0.0886
      5 C         140.8221  139.0540  162.4959 C.ar    1  UNL1        0.0267
      6 C         139.3655  139.1380  162.1476 C.ar    1  UNL1        0.1007
      7 N         139.2275  138.9039  160.6724 N.ar    1  UNL1       -0.2267
      8 C         140.5988  138.6752  160.1090 C.ar    1  UNL1        0.1471
      9 N         141.0773  138.3945  158.7154 N.ar    1  UNL1       -0.3117
     10 H         140.4304  138.3337  157.9757 H       1  UNL1        0.1700
     11 C         141.4129  139.2258  163.8639 C.ar    1  UNL1        0.0049
     12 C         142.0085  138.0482  164.5770 C.ar    1  UNL1        0.0018
     13 C         142.5993  138.2201  165.9450 C.ar    1  UNL1        0.0223
     14 C         142.5943  139.5695  166.6000 C.ar    1  UNL1        0.1185
     15 N         143.1001  140.0409  167.9312 N.ar    1  UNL1       -0.2121
     16 C         142.8170  141.5098  168.0409 C.ar    1  UNL1        0.2062
     17 C         143.1551  142.3881  169.2088 C.3     1  UNL1        0.0950
     18 O         142.1362  141.9463  166.7775 O.2     1  UNL1       -0.4384
     19 C         141.9987  140.7471  165.8870 C.ar    1  UNL1        0.1644
     20 C         141.4079  140.5752  164.5189 C.ar    1  UNL1        0.0392
     21 N         143.0199  137.9259  157.0551 N.pl3   1  UNL1       -0.2816
     22 H         143.4967  138.6226  156.5487 H       1  UNL1        0.1551
     23 C         142.2763  133.8991  155.1893 C.ar    1  UNL1        0.0565
     24 C         143.6522  134.2639  155.6623 C.ar    1  UNL1        0.0060
     25 C         143.9001  135.6062  156.2843 C.ar    1  UNL1        0.0179
     26 C         142.7721  136.5836  156.4332 C.ar    1  UNL1        0.0849
     27 C         141.3961  136.2188  155.9601 C.ar    1  UNL1        0.1522
     28 C         141.1483  134.8765  155.3381 C.ar    1  UNL1        0.0427
     29 C         142.7456  130.6654  152.9368 C.3     1  UNL1        0.1109
     30 N         142.9935  132.0077  153.5588 N.am    1  UNL1       -0.2992
     31 C         142.0284  132.5567  154.5673 C.2     1  UNL1        0.2460
     32 O         140.8153  131.7636  154.9538 O.2     1  UNL1       -0.2701
     33 H         143.7897  132.5283  153.3051 H       1  UNL1        0.1498
     34 O         140.2681  137.1962  156.1090 O.3     1  UNL1       -0.4702
     35 C         139.1794  137.2477  155.0785 C.3     1  UNL1        0.2525
     36 O         144.0339  138.6728  162.0964 O.3     1  UNL1       -0.4639
     37 C         144.5068  140.0150  162.5707 C.3     1  UNL1        0.1675
     38 C         145.1469  140.3067  163.8955 C.3     1  UNL1        0.0436
     39 C         145.4582  141.7732  163.9469 C.3     1  UNL1        0.0038
     40 C         145.0105  142.3878  162.6539 C.3     1  UNL1        0.0038
     41 C         144.4225  141.3011  161.8033 C.3     1  UNL1        0.0436
@<TRIPOS>BOND
     1    29    30    1
     2    30    31   am
     3    31    32    2
     4    31    23    1
     5    23    24   ar
     6    24    25   ar
     7    25    26   ar
     8    26    21    1
     9    21     1    1
    10     1     2   ar
    11     2     3   ar
    12     3    36    1
    13    36    37    1
    14    37    38    1
    15    38    39    1
    16    39    40    1
    17    40    41    1
    18     3     4   ar
    19     4     5   ar
    20     5    11    1
    21    11    12   ar
    22    12    13   ar
    23    13    14   ar
    24    14    15   ar
    25    15    16   ar
    26    16    17    1
    27    16    18   ar
    28    18    19   ar
    29    19    20   ar
    30     5     6   ar
    31     6     7   ar
    32     7     8   ar
    33     8     9   ar
    34    26    27   ar
    35    27    34    1
    36    34    35    1
    37    27    28   ar
    38    28    23   ar
    39     9     1   ar
    40    41    37    1
    41     8     4    1
    42    20    11   ar
    43    19    14   ar
    44    30    33    1
    45    21    22    1
    46     9    10    1
@<TRIPOS>MOLECULE
*****
 41 46 0 0 0
SMALL
GASTEIGER

@<TRIPOS>ATOM
      1 C         139.4479  140.3907  159.4986 C.ar    1  UNL1        0.2020
      2 N         139.9929  139.5079  160.5820 N.ar    1  UNL1       -0.1802
      3 C         139.7359  139.8417  162.0217 C.ar    1  UNL1        0.2299
      4 C         138.9340  141.0582  162.3779 C.ar    1  UNL1        0.0886
      5 C         138.5209  141.6366  163.6989 C.ar    1  UNL1        0.0267
      6 C         137.7206  142.8769  163.4319 C.ar    1  UNL1        0.1007
      7 N         137.6390  143.0649  161.9460 N.ar    1  UNL1       -0.2267
      8 C         138.3889  141.9409  161.2946 C.ar    1  UNL1        0.1471
      9 N         138.6458  141.6072  159.8550 N.ar    1  UNL1       -0.3117
     10 H         138.2881  142.1866  159.1439 H       1  UNL1        0.1700
     11 C         138.8504  141.0736  165.0496 C.ar    1  UNL1        0.0049
     12 C         138.1604  139.8327  165.5335 C.ar    1  UNL1        0.0018
     13 C         138.4900  139.2698  166.8843 C.ar    1  UNL1        0.0223
     14 C         139.5093  139.9477  167.7511 C.ar    1  UNL1        0.1185
     15 N         140.0368  139.6273  169.1183 N.ar    1  UNL1       -0.2121
     16 C         141.0527  140.6702  169.4793 C.ar    1  UNL1        0.2062
     17 C         141.8314  140.7366  170.7595 C.3     1  UNL1        0.0950
     18 O         141.1531  141.6351  168.3352 O.2     1  UNL1       -0.4384
     19 C         140.1992  141.1885  167.2672 C.ar    1  UNL1        0.1644
     20 C         139.8697  141.7515  165.9164 C.ar    1  UNL1        0.0392
     21 N         139.7048  140.0570  158.0590 N.pl3   1  UNL1       -0.2816
     22 H         139.2814  140.5892  157.3472 H       1  UNL1        0.1551
     23 C         142.4112  136.6233  156.9937 C.ar    1  UNL1        0.0565
     24 C         142.8899  137.6929  157.9300 C.ar    1  UNL1        0.0060
     25 C         141.9877  138.8376  158.2852 C.ar    1  UNL1        0.0179
     26 C         140.6070  138.9124  157.7039 C.ar    1  UNL1        0.0849
     27 C         140.1283  137.8427  156.7676 C.ar    1  UNL1        0.1522
     28 C         141.0305  136.6982  156.4125 C.ar    1  UNL1        0.0427
     29 C         144.2199  133.0932  157.1264 C.3     1  UNL1        0.1109
     30 N         143.3179  134.2378  157.4815 N.am    1  UNL1       -0.2992
     31 C         143.3134  135.4786  156.6386 C.2     1  UNL1        0.2460
     32 O         144.2110  135.5749  155.4408 O.2     1  UNL1       -0.2701
     33 H         142.7287  134.1747  158.2677 H       1  UNL1        0.1498
     34 O         138.7475  137.9176  156.1864 O.3     1  UNL1       -0.4702
     35 C         138.4750  137.3499  154.8250 C.3     1  UNL1        0.2525
     36 O         140.2810  138.9589  163.1050 O.3     1  UNL1       -0.4639
     37 C         141.5948  139.2874  163.7501 C.3     1  UNL1        0.1675
     38 C         142.2640  138.5008  164.8379 C.3     1  UNL1        0.0436
     39 C         143.5529  139.1874  165.1807 C.3     1  UNL1        0.0038
     40 C         143.6802  140.3984  164.3047 C.3     1  UNL1        0.0038
     41 C         142.4701  140.4601  163.4205 C.3     1  UNL1        0.0436
@<TRIPOS>BOND
     1    29    30    1
     2    30    31   am
     3    31    32    2
     4    31    23    1
     5    23    24   ar
     6    24    25   ar
     7    25    26   ar
     8    26    21    1
     9    21     1    1
    10     1     2   ar
    11     2     3   ar
    12     3    36    1
    13    36    37    1
    14    37    38    1
    15    38    39    1
    16    39    40    1
    17    40    41    1
    18     3     4   ar
    19     4     5   ar
    20     5    11    1
    21    11    12   ar
    22    12    13   ar
    23    13    14   ar
    24    14    15   ar
    25    15    16   ar
    26    16    17    1
    27    16    18   ar
    28    18    19   ar
    29    19    20   ar
    30     5     6   ar
    31     6     7   ar
    32     7     8   ar
    33     8     9   ar
    34    26    27   ar
    35    27    34    1
    36    34    35    1
    37    27    28   ar
    38    28    23   ar
    39     9     1   ar
    40    41    37    1
    41     8     4    1
    42    20    11   ar
    43    19    14   ar
    44    30    33    1
    45    21    22    1
    46     9    10    1
@<TRIPOS>MOLECULE
*****
 41 46 0 0 0
SMALL
GASTEIGER

@<TRIPOS>ATOM
      1 C         140.4312  140.9008  159.5526 C.ar    1  UNL1        0.2020
      2 N         141.0161  140.1132  160.6873 N.ar    1  UNL1       -0.1802
      3 C         140.4878  140.2977  162.0791 C.ar    1  UNL1        0.2299
      4 C         139.3747  141.2698  162.3360 C.ar    1  UNL1        0.0886
      5 C         138.6541  141.6615  163.5920 C.ar    1  UNL1        0.0267
      6 C         137.6240  142.6912  163.2335 C.ar    1  UNL1        0.1007
      7 N         137.7079  142.9359  161.7559 N.ar    1  UNL1       -0.2267
      8 C         138.7899  142.0574  161.2013 C.ar    1  UNL1        0.1471
      9 N         139.3181  141.8729  159.8096 N.ar    1  UNL1       -0.3117
     10 H         138.9342  142.3899  159.0648 H       1  UNL1        0.1700
     11 C         138.9175  141.1188  164.9653 C.ar    1  UNL1        0.0049
     12 C         138.2594  139.8455  165.4075 C.ar    1  UNL1        0.0018
     13 C         138.5228  139.3029  166.7809 C.ar    1  UNL1        0.0223
     14 C         139.4444  140.0334  167.7121 C.ar    1  UNL1        0.1185
     15 N         139.8917  139.7432  169.1140 N.ar    1  UNL1       -0.2121
     16 C         140.8263  140.8370  169.5383 C.ar    1  UNL1        0.2062
     17 C         141.5104  140.9455  170.8687 C.3     1  UNL1        0.0950
     18 O         140.9566  141.8033  168.3985 O.2     1  UNL1       -0.4384
     19 C         140.1026  141.3067  167.2698 C.ar    1  UNL1        0.1644
     20 C         139.8391  141.8494  165.8964 C.ar    1  UNL1        0.0392
     21 N         140.9595  140.7163  158.1609 N.pl3   1  UNL1       -0.2816
     22 H         140.3736  140.3580  157.4554 H       1  UNL1        0.1551
     23 C         145.2221  141.8009  157.2100 C.ar    1  UNL1        0.0565
     24 C         144.3811  142.7234  158.0417 C.ar    1  UNL1        0.0060
     25 C         142.9602  142.3619  158.3587 C.ar    1  UNL1        0.0179
     26 C         142.3803  141.0779  157.8439 C.ar    1  UNL1        0.0849
     27 C         143.2213  140.1553  157.0122 C.ar    1  UNL1        0.1522
     28 C         144.6422  140.5168  156.6953 C.ar    1  UNL1        0.0427
     29 C         148.7918  141.8098  155.4760 C.3     1  UNL1        0.1109
     30 N         147.3710  141.4484  155.7930 N.am    1  UNL1       -0.2992
     31 C         146.6430  142.1624  156.8931 C.2     1  UNL1        0.2460
     32 O         147.3358  143.2378  157.6762 O.2     1  UNL1       -0.2701
     33 H         146.9162  140.7425  155.2790 H       1  UNL1        0.1498
     34 O         142.6414  138.8713  156.4975 O.3     1  UNL1       -0.4702
     35 C         142.7463  137.6193  157.3169 C.3     1  UNL1        0.2525
     36 O         141.0726  139.5101  163.2138 O.3     1  UNL1       -0.4639
     37 C         142.4795  139.7732  163.6627 C.3     1  UNL1        0.1675
     38 C         143.2414  141.0512  163.4722 C.3     1  UNL1        0.0436
     39 C         144.6043  140.8723  164.0726 C.3     1  UNL1        0.0038
     40 C         144.6848  139.4836  164.6342 C.3     1  UNL1        0.0038
     41 C         143.3716  138.8044  164.3809 C.3     1  UNL1        0.0436
@<TRIPOS>BOND
     1    29    30    1
     2    30    31   am
     3    31    32    2
     4    31    23    1
     5    23    24   ar
     6    24    25   ar
     7    25    26   ar
     8    26    21    1
     9    21     1    1
    10     1     2   ar
    11     2     3   ar
    12     3    36    1
    13    36    37    1
    14    37    38    1
    15    38    39    1
    16    39    40    1
    17    40    41    1
    18     3     4   ar
    19     4     5   ar
    20     5    11    1
    21    11    12   ar
    22    12    13   ar
    23    13    14   ar
    24    14    15   ar
    25    15    16   ar
    26    16    17    1
    27    16    18   ar
    28    18    19   ar
    29    19    20   ar
    30     5     6   ar
    31     6     7   ar
    32     7     8   ar
    33     8     9   ar
    34    26    27   ar
    35    27    34    1
    36    34    35    1
    37    27    28   ar
    38    28    23   ar
    39     9     1   ar
    40    41    37    1
    41     8     4    1
    42    20    11   ar
    43    19    14   ar
    44    30    33    1
    45    21    22    1
    46     9    10    1
@<TRIPOS>MOLECULE
*****
 41 46 0 0 0
SMALL
GASTEIGER

@<TRIPOS>ATOM
      1 C         142.9534  138.2998  157.6769 C.ar    1  UNL1        0.2020
      2 N         142.5836  137.5695  158.9338 N.ar    1  UNL1       -0.1802
      3 C         142.7817  138.2255  160.2682 C.ar    1  UNL1        0.2299
      4 C         143.3495  139.6117  160.3456 C.ar    1  UNL1        0.0886
      5 C         143.6558  140.5074  161.5091 C.ar    1  UNL1        0.0267
      6 C         144.2148  141.7913  160.9713 C.ar    1  UNL1        0.1007
      7 N         144.2541  141.6890  159.4753 N.ar    1  UNL1       -0.2267
      8 C         143.7193  140.3420  159.0886 C.ar    1  UNL1        0.1471
      9 N         143.5212  139.6860  157.7543 N.ar    1  UNL1       -0.3117
     10 H         143.7639  140.1654  156.9293 H       1  UNL1        0.1700
     11 C         143.4408  140.1772  162.9565 C.ar    1  UNL1        0.0049
     12 C         144.4496  139.3480  163.6945 C.ar    1  UNL1        0.0018
     13 C         144.2345  139.0178  165.1418 C.ar    1  UNL1        0.0223
     14 C         143.0106  139.5169  165.8511 C.ar    1  UNL1        0.1185
     15 N         142.5323  139.3534  167.2634 N.ar    1  UNL1       -0.2121
     16 C         141.2279  140.0815  167.3982 C.ar    1  UNL1        0.2062
     17 C         140.3971  140.1791  168.6433 C.3     1  UNL1        0.0950
     18 O         140.9000  140.6951  166.0693 O.2     1  UNL1       -0.4384
     19 C         142.0018  140.3461  165.1132 C.ar    1  UNL1        0.1644
     20 C         142.2169  140.6763  163.6658 C.ar    1  UNL1        0.0392
     21 N         142.7553  137.6438  156.3425 N.pl3   1  UNL1       -0.2816
     22 H         142.7133  138.1921  155.5259 H       1  UNL1        0.1551
     23 C         142.3534  133.1700  156.0722 C.ar    1  UNL1        0.0565
     24 C         143.4931  133.7758  156.8365 C.ar    1  UNL1        0.0060
     25 C         143.6271  135.2671  156.9266 C.ar    1  UNL1        0.0179
     26 C         142.6214  136.1526  156.2524 C.ar    1  UNL1        0.0849
     27 C         141.4817  135.5467  155.4881 C.ar    1  UNL1        0.1522
     28 C         141.3477  134.0555  155.3980 C.ar    1  UNL1        0.0427
     29 C         141.0806  129.5798  154.9586 C.3     1  UNL1        0.1109
     30 N         141.2146  131.0710  155.0488 N.am    1  UNL1       -0.2992
     31 C         142.2194  131.6787  155.9821 C.2     1  UNL1        0.2460
     32 O         143.0902  130.7951  156.8252 O.2     1  UNL1       -0.2701
     33 H         140.6431  131.6509  154.4954 H       1  UNL1        0.1498
     34 O         140.4760  136.4322  154.8139 O.3     1  UNL1       -0.4702
     35 C         139.2753  136.9160  155.5717 C.3     1  UNL1        0.2525
     36 O         142.4120  137.4953  161.5252 O.3     1  UNL1       -0.4639
     37 C         141.0394  137.6546  162.1090 C.3     1  UNL1        0.1675
     38 C         140.6376  137.3322  163.5178 C.3     1  UNL1        0.0436
     39 C         139.1776  137.6427  163.6659 C.3     1  UNL1        0.0038
     40 C         138.6770  138.1570  162.3487 C.3     1  UNL1        0.0038
     41 C         139.8277  138.1644  161.3865 C.3     1  UNL1        0.0436
@<TRIPOS>BOND
     1    29    30    1
     2    30    31   am
     3    31    32    2
     4    31    23    1
     5    23    24   ar
     6    24    25   ar
     7    25    26   ar
     8    26    21    1
     9    21     1    1
    10     1     2   ar
    11     2     3   ar
    12     3    36    1
    13    36    37    1
    14    37    38    1
    15    38    39    1
    16    39    40    1
    17    40    41    1
    18     3     4   ar
    19     4     5   ar
    20     5    11    1
    21    11    12   ar
    22    12    13   ar
    23    13    14   ar
    24    14    15   ar
    25    15    16   ar
    26    16    17    1
    27    16    18   ar
    28    18    19   ar
    29    19    20   ar
    30     5     6   ar
    31     6     7   ar
    32     7     8   ar
    33     8     9   ar
    34    26    27   ar
    35    27    34    1
    36    34    35    1
    37    27    28   ar
    38    28    23   ar
    39     9     1   ar
    40    41    37    1
    41     8     4    1
    42    20    11   ar
    43    19    14   ar
    44    30    33    1
    45    21    22    1
    46     9    10    1
@<TRIPOS>MOLECULE
*****
 41 46 0 0 0
SMALL
GASTEIGER

@<TRIPOS>ATOM
      1 C         140.0107  142.3182  159.8186 C.ar    1  UNL1        0.2020
      2 N         140.6341  141.3113  160.7392 N.ar    1  UNL1       -0.1802
      3 C         140.2964  141.3211  162.2007 C.ar    1  UNL1        0.2299
      4 C         139.3352  142.3377  162.7415 C.ar    1  UNL1        0.0886
      5 C         138.8147  142.5902  164.1255 C.ar    1  UNL1        0.0267
      6 C         137.8695  143.7531  164.0602 C.ar    1  UNL1        0.1007
      7 N         137.8059  144.2193  162.6360 N.ar    1  UNL1       -0.2267
      8 C         138.7117  143.3446  161.8209 C.ar    1  UNL1        0.1471
      9 N         139.0494  143.3349  160.3595 N.ar    1  UNL1       -0.3117
     10 H         138.6402  143.9957  159.7553 H       1  UNL1        0.1700
     11 C         139.1759  141.8157  165.3582 C.ar    1  UNL1        0.0049
     12 C         138.6378  140.4298  165.5578 C.ar    1  UNL1        0.0018
     13 C         138.9992  139.6554  166.7906 C.ar    1  UNL1        0.0223
     14 C         139.8985  140.2667  167.8238 C.ar    1  UNL1        0.1185
     15 N         140.4244  139.7490  169.1296 N.ar    1  UNL1       -0.2121
     16 C         141.2874  140.8148  169.7371 C.ar    1  UNL1        0.2062
     17 C         142.0152  140.7207  171.0453 C.3     1  UNL1        0.0950
     18 O         141.2950  141.9913  168.8067 O.2     1  UNL1       -0.4384
     19 C         140.4365  141.6526  167.6242 C.ar    1  UNL1        0.1644
     20 C         140.0752  142.4271  166.3914 C.ar    1  UNL1        0.0392
     21 N         140.3484  142.3085  158.3572 N.pl3   1  UNL1       -0.2816
     22 H         140.6318  141.4716  157.9230 H       1  UNL1        0.1551
     23 C         140.0658  146.1046  155.9573 C.ar    1  UNL1        0.0565
     24 C         139.0053  145.0523  155.8238 C.ar    1  UNL1        0.0060
     25 C         139.0994  143.7868  156.6238 C.ar    1  UNL1        0.0179
     26 C         140.2542  143.5738  157.5572 C.ar    1  UNL1        0.0849
     27 C         141.3147  144.6262  157.6907 C.ar    1  UNL1        0.1522
     28 C         141.2205  145.8916  156.8908 C.ar    1  UNL1        0.0427
     29 C         139.1836  149.8354  154.9310 C.3     1  UNL1        0.1109
     30 N         139.2778  148.5700  155.7309 N.am    1  UNL1       -0.2992
     31 C         139.9716  147.3701  155.1574 C.2     1  UNL1        0.2460
     32 O         140.5712  147.4356  153.7840 O.2     1  UNL1       -0.2701
     33 H         138.8843  148.5270  156.6322 H       1  UNL1        0.1498
     34 O         142.4694  144.4132  158.6241 O.3     1  UNL1       -0.4702
     35 C         143.5093  143.3798  158.3071 C.3     1  UNL1        0.2525
     36 O         140.9199  140.3142  163.1212 O.3     1  UNL1       -0.4639
     37 C         142.3629  140.4453  163.5093 C.3     1  UNL1        0.1675
     38 C         143.4610  139.4855  163.1586 C.3     1  UNL1        0.0436
     39 C         144.7379  140.0062  163.7488 C.3     1  UNL1        0.0038
     40 C         144.4290  141.2879  164.4644 C.3     1  UNL1        0.0038
     41 C         142.9612  141.5593  164.3163 C.3     1  UNL1        0.0436
@<TRIPOS>BOND
     1    29    30    1
     2    30    31   am
     3    31    32    2
     4    31    23    1
     5    23    24   ar
     6    24    25   ar
     7    25    26   ar
     8    26    21    1
     9    21     1    1
    10     1     2   ar
    11     2     3   ar
    12     3    36    1
    13    36    37    1
    14    37    38    1
    15    38    39    1
    16    39    40    1
    17    40    41    1
    18     3     4   ar
    19     4     5   ar
    20     5    11    1
    21    11    12   ar
    22    12    13   ar
    23    13    14   ar
    24    14    15   ar
    25    15    16   ar
    26    16    17    1
    27    16    18   ar
    28    18    19   ar
    29    19    20   ar
    30     5     6   ar
    31     6     7   ar
    32     7     8   ar
    33     8     9   ar
    34    26    27   ar
    35    27    34    1
    36    34    35    1
    37    27    28   ar
    38    28    23   ar
    39     9     1   ar
    40    41    37    1
    41     8     4    1
    42    20    11   ar
    43    19    14   ar
    44    30    33    1
    45    21    22    1
    46     9    10    1
@<TRIPOS>MOLECULE
*****
 41 46 0 0 0
SMALL
GASTEIGER

@<TRIPOS>ATOM
      1 C         139.7314  138.9543  159.8358 C.ar    1  UNL1        0.2020
      2 N         140.2738  138.3057  161.0748 N.ar    1  UNL1       -0.1802
      3 C         139.9069  138.8449  162.4257 C.ar    1  UNL1        0.2299
      4 C         138.9977  140.0326  162.5375 C.ar    1  UNL1        0.0886
      5 C         138.4646  140.7805  163.7235 C.ar    1  UNL1        0.0267
      6 C         137.5928  141.8913  163.2175 C.ar    1  UNL1        0.1007
      7 N         137.5871  141.8299  161.7188 N.ar    1  UNL1       -0.2267
      8 C         138.4553  140.6812  161.2985 C.ar    1  UNL1        0.1471
      9 N         138.8221  140.1421  159.9477 N.ar    1  UNL1       -0.3117
     10 H         138.4661  140.5678  159.1345 H       1  UNL1        0.1700
     11 C         138.7528  140.4717  165.1628 C.ar    1  UNL1        0.0049
     12 C         138.0536  139.3302  165.8396 C.ar    1  UNL1        0.0018
     13 C         138.3418  139.0215  167.2789 C.ar    1  UNL1        0.0223
     14 C         139.3293  139.8542  168.0414 C.ar    1  UNL1        0.1185
     15 N         139.8137  139.7892  169.4595 N.ar    1  UNL1       -0.2121
     16 C         140.8124  140.8904  169.6593 C.ar    1  UNL1        0.2062
     17 C         141.5489  141.1930  170.9304 C.3     1  UNL1        0.0950
     18 O         140.9452  141.6361  168.3645 O.2     1  UNL1       -0.4384
     19 C         140.0286  140.9957  167.3647 C.ar    1  UNL1        0.1644
     20 C         139.7403  141.3044  165.9253 C.ar    1  UNL1        0.0392
     21 N         140.0982  138.4151  158.4850 N.pl3   1  UNL1       -0.2816
     22 H         139.5767  137.6791  158.0905 H       1  UNL1        0.1551
     23 C         143.5823  140.1618  156.2356 C.ar    1  UNL1        0.0565
     24 C         142.5113  141.0622  156.7761 C.ar    1  UNL1        0.0060
     25 C         141.3498  140.4799  157.5259 C.ar    1  UNL1        0.0179
     26 C         141.2595  138.9974  157.7352 C.ar    1  UNL1        0.0849
     27 C         142.3307  138.0970  157.1946 C.ar    1  UNL1        0.1522
     28 C         143.4920  138.6792  156.4448 C.ar    1  UNL1        0.0427
     29 C         147.2401  141.4596  155.4069 C.3     1  UNL1        0.1109
     30 N         146.0787  140.8774  156.1567 N.am    1  UNL1       -0.2992
     31 C         144.7437  140.7441  155.4857 C.2     1  UNL1        0.2460
     32 O         144.5702  141.1929  154.0651 O.2     1  UNL1       -0.2701
     33 H         146.1926  140.5828  157.0891 H       1  UNL1        0.1498
     34 O         142.2404  136.6144  157.4039 O.3     1  UNL1       -0.4702
     35 C         142.4128  135.6811  156.2424 C.3     1  UNL1        0.2525
     36 O         140.4493  138.1963  163.6647 O.3     1  UNL1       -0.4639
     37 C         141.8052  138.5792  164.1796 C.3     1  UNL1        0.1675
     38 C         142.9435  139.1073  163.3579 C.3     1  UNL1        0.0436
     39 C         144.1026  139.3558  164.2771 C.3     1  UNL1        0.0038
     40 C         143.6805  138.9813  165.6670 C.3     1  UNL1        0.0038
     41 C         142.2606  138.5014  165.6067 C.3     1  UNL1        0.0436
@<TRIPOS>BOND
     1    29    30    1
     2    30    31   am
     3    31    32    2
     4    31    23    1
     5    23    24   ar
     6    24    25   ar
     7    25    26   ar
     8    26    21    1
     9    21     1    1
    10     1     2   ar
    11     2     3   ar
    12     3    36    1
    13    36    37    1
    14    37    38    1
    15    38    39    1
    16    39    40    1
    17    40    41    1
    18     3     4   ar
    19     4     5   ar
    20     5    11    1
    21    11    12   ar
    22    12    13   ar
    23    13    14   ar
    24    14    15   ar
    25    15    16   ar
    26    16    17    1
    27    16    18   ar
    28    18    19   ar
    29    19    20   ar
    30     5     6   ar
    31     6     7   ar
    32     7     8   ar
    33     8     9   ar
    34    26    27   ar
    35    27    34    1
    36    34    35    1
    37    27    28   ar
    38    28    23   ar
    39     9     1   ar
    40    41    37    1
    41     8     4    1
    42    20    11   ar
    43    19    14   ar
    44    30    33    1
    45    21    22    1
    46     9    10    1
