@<TRIPOS>MOLECULE
*****
 24 27 0 0 0
SMALL
GASTEIGER

@<TRIPOS>ATOM
      1 O         138.3002  143.0171  160.7617 O.2     1  UNL1       -0.2523
      2 C         138.3475  143.4484  162.1976 C.2     1  UNL1        0.3076
      3 N         138.9188  144.7360  162.7131 N.am    1  UNL1       -0.2609
      4 C         138.7563  144.7511  164.2042 C.3     1  UNL1        0.1165
      5 C         138.0846  143.4728  164.6102 C.3     1  UNL1        0.1168
      6 N         137.8320  142.6677  163.3701 N.am    1  UNL1       -0.2582
      7 C         139.5430  145.8184  161.8832 C.3     1  UNL1        0.1123
      8 C         140.7990  145.5417  161.1113 C.3     1  UNL1        0.0944
      9 N         141.8846  144.7048  161.7204 N.3     1  UNL1       -0.2637
     10 C         142.3850  144.8004  163.1312 C.3     1  UNL1        0.0992
     11 C         143.4701  143.7799  163.3083 C.ar    1  UNL1       -0.0088
     12 C         144.3251  143.4183  164.4865 C.ar    1  UNL1       -0.0032
     13 C         145.3503  142.3303  164.3633 C.ar    1  UNL1       -0.0003
     14 C         145.5204  141.6039  163.0619 C.ar    1  UNL1       -0.0003
     15 C         144.6653  141.9656  161.8838 C.ar    1  UNL1       -0.0032
     16 C         143.6402  143.0536  162.0070 C.ar    1  UNL1       -0.0088
     17 C         142.6603  143.6252  161.0256 C.3     1  UNL1        0.0992
     18 C         137.1786  141.3188  163.3126 C.3     1  UNL1        0.1217
     19 C         137.9136  140.1077  163.8056 C.ar    1  UNL1       -0.0023
     20 C         138.1876  139.9416  165.2709 C.ar    1  UNL1       -0.0026
     21 C         138.9226  138.7305  165.7640 C.ar    1  UNL1       -0.0003
     22 C         139.3836  137.6856  164.7915 C.ar    1  UNL1       -0.0000
     23 C         139.1097  137.8517  163.3261 C.ar    1  UNL1       -0.0003
     24 C         138.3746  139.0628  162.8332 C.ar    1  UNL1       -0.0026
@<TRIPOS>BOND
     1     1     2    2
     2     2     3   am
     3     3     7    1
     4     7     8    1
     5     8     9    1
     6     9    10    1
     7    10    11    1
     8    11    12   ar
     9    12    13   ar
    10    13    14   ar
    11    14    15   ar
    12    15    16   ar
    13    16    17    1
    14     3     4    1
    15     4     5    1
    16     5     6    1
    17     6    18    1
    18    18    19    1
    19    19    20   ar
    20    20    21   ar
    21    21    22   ar
    22    22    23   ar
    23    23    24   ar
    24     6     2   am
    25    24    19   ar
    26    17     9    1
    27    16    11   ar
@<TRIPOS>MOLECULE
*****
 24 27 0 0 0
SMALL
GASTEIGER

@<TRIPOS>ATOM
      1 O         140.6028  142.2049  162.1129 O.2     1  UNL1       -0.2523
      2 C         139.7979  143.0599  163.0462 C.2     1  UNL1        0.3076
      3 N         140.2046  144.3984  163.5876 N.am    1  UNL1       -0.2609
      4 C         139.1030  144.8924  164.4780 C.3     1  UNL1        0.1165
      5 C         138.0156  143.8591  164.4868 C.3     1  UNL1        0.1168
      6 N         138.4451  142.7266  163.6019 N.am    1  UNL1       -0.2582
      7 C         141.4875  145.1168  163.2908 C.3     1  UNL1        0.1123
      8 C         142.7553  144.7019  163.9766 C.3     1  UNL1        0.0944
      9 N         142.8927  143.3113  164.5219 N.3     1  UNL1       -0.2637
     10 C         142.2497  142.7868  165.7715 C.3     1  UNL1        0.0992
     11 C         142.6567  141.3524  165.9354 C.ar    1  UNL1       -0.0088
     12 C         142.3283  140.3292  166.9818 C.ar    1  UNL1       -0.0032
     13 C         142.8945  138.9440  166.8800 C.ar    1  UNL1       -0.0003
     14 C         143.7891  138.5819  165.7316 C.ar    1  UNL1       -0.0003
     15 C         144.1175  139.6052  164.6852 C.ar    1  UNL1       -0.0032
     16 C         143.5513  140.9904  164.7870 C.ar    1  UNL1       -0.0088
     17 C         143.6971  142.2011  163.9135 C.3     1  UNL1        0.0992
     18 C         137.6597  141.4798  163.3219 C.3     1  UNL1        0.1217
     19 C         138.1134  140.1654  163.8844 C.ar    1  UNL1       -0.0023
     20 C         138.2194  139.9815  165.3692 C.ar    1  UNL1       -0.0026
     21 C         138.6731  138.6671  165.9318 C.ar    1  UNL1       -0.0003
     22 C         139.0208  137.5365  165.0093 C.ar    1  UNL1       -0.0000
     23 C         138.9147  137.7203  163.5244 C.ar    1  UNL1       -0.0003
     24 C         138.4610  139.0348  162.9619 C.ar    1  UNL1       -0.0026
@<TRIPOS>BOND
     1     1     2    2
     2     2     3   am
     3     3     7    1
     4     7     8    1
     5     8     9    1
     6     9    10    1
     7    10    11    1
     8    11    12   ar
     9    12    13   ar
    10    13    14   ar
    11    14    15   ar
    12    15    16   ar
    13    16    17    1
    14     3     4    1
    15     4     5    1
    16     5     6    1
    17     6    18    1
    18    18    19    1
    19    19    20   ar
    20    20    21   ar
    21    21    22   ar
    22    22    23   ar
    23    23    24   ar
    24     6     2   am
    25    24    19   ar
    26    17     9    1
    27    16    11   ar
@<TRIPOS>MOLECULE
*****
 24 27 0 0 0
SMALL
GASTEIGER

@<TRIPOS>ATOM
      1 O         140.8892  141.0236  162.0496 O.2     1  UNL1       -0.2523
      2 C         140.3107  139.7304  162.5422 C.2     1  UNL1        0.3076
      3 N         140.9939  138.3952  162.5241 N.am    1  UNL1       -0.2609
      4 C         140.0528  137.3848  163.1102 C.3     1  UNL1        0.1165
      5 C         138.7878  138.0957  163.4905 C.3     1  UNL1        0.1168
      6 N         138.9472  139.5453  163.1395 N.am    1  UNL1       -0.2582
      7 C         142.3758  138.1188  162.0101 C.3     1  UNL1        0.1123
      8 C         143.5720  138.5630  162.7984 C.3     1  UNL1        0.0944
      9 N         143.3870  139.2526  164.1176 N.3     1  UNL1       -0.2637
     10 C         143.4867  140.7291  164.3623 C.3     1  UNL1        0.0992
     11 C         143.2311  140.9758  165.8197 C.ar    1  UNL1       -0.0088
     12 C         143.1997  142.2350  166.6341 C.ar    1  UNL1       -0.0032
     13 C         142.9106  142.1702  168.1045 C.ar    1  UNL1       -0.0003
     14 C         142.6529  140.8461  168.7605 C.ar    1  UNL1       -0.0003
     15 C         142.6843  139.5868  167.9461 C.ar    1  UNL1       -0.0032
     16 C         142.9734  139.6517  166.4757 C.ar    1  UNL1       -0.0088
     17 C         143.0697  138.5867  165.4237 C.3     1  UNL1        0.0992
     18 C         137.9230  140.6209  163.3491 C.3     1  UNL1        0.1217
     19 C         138.3059  141.8973  164.0375 C.ar    1  UNL1       -0.0023
     20 C         139.2810  141.8716  165.1769 C.ar    1  UNL1       -0.0026
     21 C         139.6640  143.1480  165.8654 C.ar    1  UNL1       -0.0003
     22 C         139.0717  144.4502  165.4144 C.ar    1  UNL1       -0.0000
     23 C         138.0966  144.4761  164.2750 C.ar    1  UNL1       -0.0003
     24 C         137.7136  143.1995  163.5865 C.ar    1  UNL1       -0.0026
@<TRIPOS>BOND
     1     1     2    2
     2     2     3   am
     3     3     7    1
     4     7     8    1
     5     8     9    1
     6     9    10    1
     7    10    11    1
     8    11    12   ar
     9    12    13   ar
    10    13    14   ar
    11    14    15   ar
    12    15    16   ar
    13    16    17    1
    14     3     4    1
    15     4     5    1
    16     5     6    1
    17     6    18    1
    18    18    19    1
    19    19    20   ar
    20    20    21   ar
    21    21    22   ar
    22    22    23   ar
    23    23    24   ar
    24     6     2   am
    25    24    19   ar
    26    17     9    1
    27    16    11   ar
@<TRIPOS>MOLECULE
*****
 24 27 0 0 0
SMALL
GASTEIGER

@<TRIPOS>ATOM
      1 O         141.8802  138.6670  165.8252 O.2     1  UNL1       -0.2523
      2 C         141.2522  138.2925  164.5155 C.2     1  UNL1        0.3076
      3 N         139.8509  137.7945  164.3200 N.am    1  UNL1       -0.2609
      4 C         139.6479  137.5445  162.8549 C.3     1  UNL1        0.1165
      5 C         140.9239  137.8881  162.1450 C.3     1  UNL1        0.1168
      6 N         141.9154  138.3504  163.1713 N.am    1  UNL1       -0.2582
      7 C         138.8315  137.5835  165.3999 C.3     1  UNL1        0.1123
      8 C         138.1128  138.7589  165.9930 C.3     1  UNL1        0.0944
      9 N         138.3876  140.1420  165.4816 N.3     1  UNL1       -0.2637
     10 C         139.3386  141.1326  166.0854 C.3     1  UNL1        0.0992
     11 C         139.2984  142.3802  165.2536 C.ar    1  UNL1       -0.0088
     12 C         140.0243  143.6877  165.3697 C.ar    1  UNL1       -0.0032
     13 C         139.7744  144.7757  164.3679 C.ar    1  UNL1       -0.0003
     14 C         138.7987  144.5562  163.2500 C.ar    1  UNL1       -0.0003
     15 C         138.0728  143.2487  163.1339 C.ar    1  UNL1       -0.0032
     16 C         138.3227  142.1607  164.1357 C.ar    1  UNL1       -0.0088
     17 C         137.7598  140.7775  164.2766 C.3     1  UNL1        0.0992
     18 C         143.3228  138.7928  162.9008 C.3     1  UNL1        0.1217
     19 C         143.7532  140.1847  163.2578 C.ar    1  UNL1       -0.0023
     20 C         145.1605  140.4422  163.7081 C.ar    1  UNL1       -0.0026
     21 C         145.5910  141.8341  164.0651 C.ar    1  UNL1       -0.0003
     22 C         144.6140  142.9684  163.9717 C.ar    1  UNL1       -0.0000
     23 C         143.2066  142.7109  163.5213 C.ar    1  UNL1       -0.0003
     24 C         142.7762  141.3190  163.1643 C.ar    1  UNL1       -0.0026
@<TRIPOS>BOND
     1     1     2    2
     2     2     3   am
     3     3     7    1
     4     7     8    1
     5     8     9    1
     6     9    10    1
     7    10    11    1
     8    11    12   ar
     9    12    13   ar
    10    13    14   ar
    11    14    15   ar
    12    15    16   ar
    13    16    17    1
    14     3     4    1
    15     4     5    1
    16     5     6    1
    17     6    18    1
    18    18    19    1
    19    19    20   ar
    20    20    21   ar
    21    21    22   ar
    22    22    23   ar
    23    23    24   ar
    24     6     2   am
    25    24    19   ar
    26    17     9    1
    27    16    11   ar
@<TRIPOS>MOLECULE
*****
 24 27 0 0 0
SMALL
GASTEIGER

@<TRIPOS>ATOM
      1 O         143.3798  141.8557  165.6388 O.2     1  UNL1       -0.2523
      2 C         143.6981  141.0035  164.4462 C.2     1  UNL1        0.3076
      3 N         144.3607  141.4670  163.1828 N.am    1  UNL1       -0.2609
      4 C         144.4817  140.2880  162.2633 C.3     1  UNL1        0.1165
      5 C         143.8940  139.0958  162.9585 C.3     1  UNL1        0.1168
      6 N         143.4097  139.5380  164.3076 N.am    1  UNL1       -0.2582
      7 C         144.8213  142.8642  162.8902 C.3     1  UNL1        0.1123
      8 C         143.8349  143.8999  162.4381 C.3     1  UNL1        0.0944
      9 N         142.4058  143.8210  162.8869 N.3     1  UNL1       -0.2637
     10 C         141.7569  144.6928  163.9208 C.3     1  UNL1        0.0992
     11 C         140.3247  144.2671  164.0535 C.ar    1  UNL1       -0.0088
     12 C         139.2053  144.7662  164.9181 C.ar    1  UNL1       -0.0032
     13 C         137.8495  144.1304  164.8308 C.ar    1  UNL1       -0.0003
     14 C         137.6133  142.9955  163.8789 C.ar    1  UNL1       -0.0003
     15 C         138.7327  142.4963  163.0143 C.ar    1  UNL1       -0.0032
     16 C         140.0885  143.1321  163.1016 C.ar    1  UNL1       -0.0088
     17 C         141.3746  142.8565  162.3806 C.3     1  UNL1        0.0992
     18 C         142.7524  138.6675  165.3372 C.3     1  UNL1        0.1217
     19 C         141.2631  138.7063  165.5119 C.ar    1  UNL1       -0.0023
     20 C         140.6320  139.7945  166.3288 C.ar    1  UNL1       -0.0026
     21 C         139.1427  139.8334  166.5036 C.ar    1  UNL1       -0.0003
     22 C         138.2846  138.7839  165.8614 C.ar    1  UNL1       -0.0000
     23 C         138.9157  137.6957  165.0444 C.ar    1  UNL1       -0.0003
     24 C         140.4051  137.6569  164.8697 C.ar    1  UNL1       -0.0026
@<TRIPOS>BOND
     1     1     2    2
     2     2     3   am
     3     3     7    1
     4     7     8    1
     5     8     9    1
     6     9    10    1
     7    10    11    1
     8    11    12   ar
     9    12    13   ar
    10    13    14   ar
    11    14    15   ar
    12    15    16   ar
    13    16    17    1
    14     3     4    1
    15     4     5    1
    16     5     6    1
    17     6    18    1
    18    18    19    1
    19    19    20   ar
    20    20    21   ar
    21    21    22   ar
    22    22    23   ar
    23    23    24   ar
    24     6     2   am
    25    24    19   ar
    26    17     9    1
    27    16    11   ar
@<TRIPOS>MOLECULE
*****
 24 27 0 0 0
SMALL
GASTEIGER

@<TRIPOS>ATOM
      1 O         139.0736  138.4053  164.9961 O.2     1  UNL1       -0.2523
      2 C         140.0746  138.2175  163.8949 C.2     1  UNL1        0.3076
      3 N         139.7651  138.1066  162.4314 N.am    1  UNL1       -0.2609
      4 C         141.0602  137.9283  161.6958 C.3     1  UNL1        0.1165
      5 C         142.1702  137.9290  162.7049 C.3     1  UNL1        0.1168
      6 N         141.5610  138.1078  164.0639 N.am    1  UNL1       -0.2582
      7 C         138.4001  138.1639  161.8121 C.3     1  UNL1        0.1123
      8 C         137.7983  139.4878  161.4444 C.3     1  UNL1        0.0944
      9 N         138.1976  140.7263  162.1905 N.3     1  UNL1       -0.2637
     10 C         137.3507  141.4716  163.1791 C.3     1  UNL1        0.0992
     11 C         138.1435  142.6429  163.6787 C.ar    1  UNL1       -0.0088
     12 C         137.8208  143.7261  164.6647 C.ar    1  UNL1       -0.0032
     13 C         138.8350  144.7879  164.9710 C.ar    1  UNL1       -0.0003
     14 C         140.1720  144.7665  164.2912 C.ar    1  UNL1       -0.0003
     15 C         140.4947  143.6833  163.3051 C.ar    1  UNL1       -0.0032
     16 C         139.4804  142.6214  162.9989 C.ar    1  UNL1       -0.0088
     17 C         139.5139  141.4369  162.0792 C.3     1  UNL1        0.0992
     18 C         142.3073  138.1665  165.3637 C.3     1  UNL1        0.1217
     19 C         142.4221  139.4656  166.1047 C.ar    1  UNL1       -0.0023
     20 C         142.6034  139.4663  167.5936 C.ar    1  UNL1       -0.0026
     21 C         142.7182  140.7654  168.3346 C.ar    1  UNL1       -0.0003
     22 C         142.6517  142.0639  167.5866 C.ar    1  UNL1       -0.0000
     23 C         142.4704  142.0633  166.0976 C.ar    1  UNL1       -0.0003
     24 C         142.3556  140.7640  165.3566 C.ar    1  UNL1       -0.0026
@<TRIPOS>BOND
     1     1     2    2
     2     2     3   am
     3     3     7    1
     4     7     8    1
     5     8     9    1
     6     9    10    1
     7    10    11    1
     8    11    12   ar
     9    12    13   ar
    10    13    14   ar
    11    14    15   ar
    12    15    16   ar
    13    16    17    1
    14     3     4    1
    15     4     5    1
    16     5     6    1
    17     6    18    1
    18    18    19    1
    19    19    20   ar
    20    20    21   ar
    21    21    22   ar
    22    22    23   ar
    23    23    24   ar
    24     6     2   am
    25    24    19   ar
    26    17     9    1
    27    16    11   ar
@<TRIPOS>MOLECULE
*****
 24 27 0 0 0
SMALL
GASTEIGER

@<TRIPOS>ATOM
      1 O         142.4794  141.3531  161.8634 O.2     1  UNL1       -0.2523
      2 C         143.1952  142.1871  162.8842 C.2     1  UNL1        0.3076
      3 N         144.3646  141.7509  163.7161 N.am    1  UNL1       -0.2609
      4 C         144.7594  142.8980  164.5984 C.3     1  UNL1        0.1165
      5 C         143.8339  144.0431  164.3117 C.3     1  UNL1        0.1168
      6 N         142.8672  143.6038  163.2522 N.am    1  UNL1       -0.2582
      7 C         145.0236  140.4041  163.6733 C.3     1  UNL1        0.1123
      8 C         144.6228  139.3415  164.6533 C.3     1  UNL1        0.0944
      9 N         143.1840  139.1909  165.0496 N.3     1  UNL1       -0.2637
     10 C         142.1899  138.2586  164.4232 C.3     1  UNL1        0.0992
     11 C         140.8781  138.4377  165.1283 C.ar    1  UNL1       -0.0088
     12 C         139.5403  137.7857  164.9403 C.ar    1  UNL1       -0.0032
     13 C         138.3860  138.1769  165.8146 C.ar    1  UNL1       -0.0003
     14 C         138.5694  139.2200  166.8768 C.ar    1  UNL1       -0.0003
     15 C         139.9071  139.8719  167.0648 C.ar    1  UNL1       -0.0032
     16 C         141.0615  139.4808  166.1905 C.ar    1  UNL1       -0.0088
     17 C         142.4866  139.9463  166.1418 C.3     1  UNL1        0.0992
     18 C         141.7659  144.4351  162.6642 C.3     1  UNL1        0.1217
     19 C         140.3638  144.2948  163.1785 C.ar    1  UNL1       -0.0023
     20 C         140.0395  144.6886  164.5890 C.ar    1  UNL1       -0.0026
     21 C         138.6374  144.5484  165.1033 C.ar    1  UNL1       -0.0003
     22 C         137.5597  144.0142  164.2071 C.ar    1  UNL1       -0.0000
     23 C         137.8840  143.6204  162.7965 C.ar    1  UNL1       -0.0003
     24 C         139.2862  143.7607  162.2822 C.ar    1  UNL1       -0.0026
@<TRIPOS>BOND
     1     1     2    2
     2     2     3   am
     3     3     7    1
     4     7     8    1
     5     8     9    1
     6     9    10    1
     7    10    11    1
     8    11    12   ar
     9    12    13   ar
    10    13    14   ar
    11    14    15   ar
    12    15    16   ar
    13    16    17    1
    14     3     4    1
    15     4     5    1
    16     5     6    1
    17     6    18    1
    18    18    19    1
    19    19    20   ar
    20    20    21   ar
    21    21    22   ar
    22    22    23   ar
    23    23    24   ar
    24     6     2   am
    25    24    19   ar
    26    17     9    1
    27    16    11   ar
@<TRIPOS>MOLECULE
*****
 24 27 0 0 0
SMALL
GASTEIGER

@<TRIPOS>ATOM
      1 O         141.9026  139.2206  161.4819 O.2     1  UNL1       -0.2523
      2 C         141.0897  138.6145  162.5873 C.2     1  UNL1        0.3076
      3 N         139.6397  138.2379  162.5109 N.am    1  UNL1       -0.2609
      4 C         139.2379  137.6693  163.8396 C.3     1  UNL1        0.1165
      5 C         140.4395  137.6946  164.7371 C.3     1  UNL1        0.1168
      6 N         141.5840  138.2788  163.9632 N.am    1  UNL1       -0.2582
      7 C         138.7482  138.4012  161.3157 C.3     1  UNL1        0.1123
      8 C         137.9063  139.6341  161.1709 C.3     1  UNL1        0.0944
      9 N         138.2231  140.8578  161.9785 N.3     1  UNL1       -0.2637
     10 C         137.3861  141.4235  163.0873 C.3     1  UNL1        0.0992
     11 C         138.0782  142.6459  163.6132 C.ar    1  UNL1       -0.0088
     12 C         137.7202  143.6107  164.7045 C.ar    1  UNL1       -0.0032
     13 C         138.6269  144.7653  165.0120 C.ar    1  UNL1       -0.0003
     14 C         139.8917  144.9551  164.2283 C.ar    1  UNL1       -0.0003
     15 C         140.2498  143.9903  163.1370 C.ar    1  UNL1       -0.0032
     16 C         139.3430  142.8357  162.8295 C.ar    1  UNL1       -0.0088
     17 C         139.4325  141.7306  161.8192 C.3     1  UNL1        0.0992
     18 C         142.9779  138.4900  164.4752 C.3     1  UNL1        0.1217
     19 C         143.5890  139.8595  164.4437 C.ar    1  UNL1       -0.0023
     20 C         144.9849  140.0462  163.9276 C.ar    1  UNL1       -0.0026
     21 C         145.5960  141.4157  163.8961 C.ar    1  UNL1       -0.0003
     22 C         144.8111  142.5985  164.3807 C.ar    1  UNL1       -0.0000
     23 C         143.4151  142.4119  164.8969 C.ar    1  UNL1       -0.0003
     24 C         142.8040  141.0423  164.9283 C.ar    1  UNL1       -0.0026
@<TRIPOS>BOND
     1     1     2    2
     2     2     3   am
     3     3     7    1
     4     7     8    1
     5     8     9    1
     6     9    10    1
     7    10    11    1
     8    11    12   ar
     9    12    13   ar
    10    13    14   ar
    11    14    15   ar
    12    15    16   ar
    13    16    17    1
    14     3     4    1
    15     4     5    1
    16     5     6    1
    17     6    18    1
    18    18    19    1
    19    19    20   ar
    20    20    21   ar
    21    21    22   ar
    22    22    23   ar
    23    23    24   ar
    24     6     2   am
    25    24    19   ar
    26    17     9    1
    27    16    11   ar
@<TRIPOS>MOLECULE
*****
 24 27 0 0 0
SMALL
GASTEIGER

@<TRIPOS>ATOM
      1 O         143.3350  139.0645  165.2255 O.2     1  UNL1       -0.2523
      2 C         142.8480  138.9887  163.8088 C.2     1  UNL1        0.3076
      3 N         141.7075  138.1504  163.3122 N.am    1  UNL1       -0.2609
      4 C         141.5707  138.3814  161.8364 C.3     1  UNL1        0.1165
      5 C         142.6266  139.3625  161.4210 C.3     1  UNL1        0.1168
      6 N         143.4160  139.7378  162.6400 N.am    1  UNL1       -0.2582
      7 C         140.8538  137.2407  164.1451 C.3     1  UNL1        0.1123
      8 C         139.7485  137.8098  164.9844 C.3     1  UNL1        0.0944
      9 N         139.4666  139.2828  164.9548 N.3     1  UNL1       -0.2637
     10 C         138.4209  139.9639  164.1226 C.3     1  UNL1        0.0992
     11 C         138.4890  141.4353  164.4058 C.ar    1  UNL1       -0.0088
     12 C         137.7010  142.5967  163.8766 C.ar    1  UNL1       -0.0032
     13 C         138.0008  143.9865  164.3546 C.ar    1  UNL1       -0.0003
     14 C         139.0886  144.2149  165.3618 C.ar    1  UNL1       -0.0003
     15 C         139.8766  143.0535  165.8910 C.ar    1  UNL1       -0.0032
     16 C         139.5768  141.6637  165.4130 C.ar    1  UNL1       -0.0088
     17 C         140.1810  140.3334  165.7523 C.3     1  UNL1        0.0992
     18 C         144.5706  140.6943  162.6826 C.3     1  UNL1        0.1217
     19 C         144.3817  142.0737  163.2406 C.ar    1  UNL1       -0.0023
     20 C         144.0066  143.2058  162.3310 C.ar    1  UNL1       -0.0026
     21 C         143.8176  144.5853  162.8890 C.ar    1  UNL1       -0.0003
     22 C         144.0037  144.8326  164.3567 C.ar    1  UNL1       -0.0000
     23 C         144.3788  143.7005  165.2665 C.ar    1  UNL1       -0.0003
     24 C         144.5678  142.3210  164.7084 C.ar    1  UNL1       -0.0026
@<TRIPOS>BOND
     1     1     2    2
     2     2     3   am
     3     3     7    1
     4     7     8    1
     5     8     9    1
     6     9    10    1
     7    10    11    1
     8    11    12   ar
     9    12    13   ar
    10    13    14   ar
    11    14    15   ar
    12    15    16   ar
    13    16    17    1
    14     3     4    1
    15     4     5    1
    16     5     6    1
    17     6    18    1
    18    18    19    1
    19    19    20   ar
    20    20    21   ar
    21    21    22   ar
    22    22    23   ar
    23    23    24   ar
    24     6     2   am
    25    24    19   ar
    26    17     9    1
    27    16    11   ar
