@<TRIPOS>MOLECULE
*****
 43 46 0 0 0
SMALL
GASTEIGER

@<TRIPOS>ATOM
      1 C         146.2878  142.7113  154.9950 C.3     1  UNL1        0.0437
      2 C         145.3162  141.5998  155.2612 C.3     1  UNL1        0.1368
      3 C         145.5108  141.4275  153.7838 C.3     1  UNL1        0.0437
      4 C         144.4123  140.4286  155.0143 C.3     1  UNL1        0.0643
      5 C         143.6512  139.8156  156.1522 C.3     1  UNL1        0.1020
      6 C         143.7940  140.3738  157.5371 C.ar    1  UNL1        0.0488
      7 C         143.0328  139.7609  158.6750 C.ar    1  UNL1        0.0034
      8 C         143.1756  140.3191  160.0599 C.ar    1  UNL1        0.0177
      9 C         144.0796  141.4904  160.3069 C.ar    1  UNL1        0.0851
     10 N         144.8408  142.1034  159.1689 N.ar    1  UNL1       -0.2119
     11 C         144.6979  141.5451  157.7840 C.ar    1  UNL1        0.2219
     12 O         145.4591  142.1581  156.6460 O.3     1  UNL1       -0.4676
     13 C         144.2224  142.0487  161.6917 C.ar    1  UNL1        0.0284
     14 C         145.1998  141.4356  162.6504 C.ar    1  UNL1        0.0032
     15 C         145.3426  141.9939  164.0353 C.ar    1  UNL1        0.0115
     16 C         144.5081  143.1652  164.4616 C.ar    1  UNL1        0.0585
     17 CL        144.6509  143.7234  165.8464 Cl      1  UNL1       -0.0822
     18 C         143.5308  143.7782  163.5029 C.ar    1  UNL1        0.0228
     19 C         143.3879  143.2200  162.1180 C.ar    1  UNL1        0.0599
     20 CL        142.8326  143.6645  161.7581 Cl      1  UNL1       -0.0822
     21 C         142.4145  139.7061  161.1978 C.ar    1  UNL1        0.0015
     22 C         141.0825  140.2679  161.5981 C.ar    1  UNL1        0.0009
     23 C         140.3213  139.6549  162.7361 C.ar    1  UNL1        0.0114
     24 C         140.8922  138.4802  163.4737 C.ar    1  UNL1        0.0577
     25 CL        140.1311  137.8672  164.6117 Cl      1  UNL1       -0.0822
     26 C         142.2242  137.9184  163.0734 C.ar    1  UNL1        0.0114
     27 C         142.9853  138.5314  161.9355 C.ar    1  UNL1        0.0009
     28 N         142.7472  138.6443  155.9052 N.am    1  UNL1       -0.3018
     29 C         143.3317  137.2892  155.6372 C.2     1  UNL1        0.2256
     30 O         144.8203  137.1053  155.6160 O.2     1  UNL1       -0.2750
     31 H         141.7702  138.7650  155.9191 H       1  UNL1        0.1497
     32 C         142.4277  136.1178  155.3902 C.3     1  UNL1        0.1291
     33 C         142.7024  134.8041  156.0600 C.3     1  UNL1        0.2722
     34 O         142.9442  135.5164  157.3577 O.3     1  UNL1       -0.3725
     35 H         143.3213  134.8964  158.0014 H       1  UNL1        0.2108
     36 C         142.9770  133.4904  156.7298 C.3     1  UNL1        0.4279
     37 F         143.2517  132.1766  157.3996 F       1  UNL1       -0.1672
     38 F         144.3645  133.9514  157.0649 F       1  UNL1       -0.1672
     39 F         142.1836  133.1257  156.5816 F       1  UNL1       -0.1672
     40 C         142.4606  134.0919  154.7622 C.3     1  UNL1        0.4279
     41 F         142.2188  133.3797  153.4644 F       1  UNL1       -0.1672
     42 F         143.2979  133.8412  154.6190 F       1  UNL1       -0.1672
     43 F         141.0022  134.4322  154.8472 F       1  UNL1       -0.1672
@<TRIPOS>BOND
     1     1     2    1
     2     2     3    1
     3     2     4    1
     4     4     5    1
     5     5    28    1
     6    28    29   am
     7    29    30    2
     8    29    32    1
     9    32    33    1
    10    33    34    1
    11    33    36    1
    12    36    37    1
    13    36    38    1
    14    36    39    1
    15    33    40    1
    16    40    41    1
    17    40    42    1
    18    40    43    1
    19     5     6    1
    20     6     7   ar
    21     7     8   ar
    22     8    21    1
    23    21    22   ar
    24    22    23   ar
    25    23    24   ar
    26    24    25    1
    27    24    26   ar
    28    26    27   ar
    29     8     9   ar
    30     9    13    1
    31    13    14   ar
    32    14    15   ar
    33    15    16   ar
    34    16    17    1
    35    16    18   ar
    36    18    19   ar
    37    19    20    1
    38     9    10   ar
    39    10    11   ar
    40    11    12    1
    41    12     2    1
    42    11     6   ar
    43    27    21   ar
    44    19    13   ar
    45    28    31    1
    46    34    35    1
@<TRIPOS>MOLECULE
*****
 43 46 0 0 0
SMALL
GASTEIGER

@<TRIPOS>ATOM
      1 C         136.9738  143.7672  155.2469 C.3     1  UNL1        0.0437
      2 C         137.4322  142.3579  155.4792 C.3     1  UNL1        0.1368
      3 C         137.1077  142.2885  154.0163 C.3     1  UNL1        0.0437
      4 C         137.7779  140.9246  155.2035 C.3     1  UNL1        0.0643
      5 C         138.2888  140.0501  156.3099 C.3     1  UNL1        0.1020
      6 C         138.4541  140.6089  157.6921 C.ar    1  UNL1        0.0488
      7 C         138.9651  139.7344  158.7985 C.ar    1  UNL1        0.0034
      8 C         139.1303  140.2933  160.1806 C.ar    1  UNL1        0.0177
      9 C         138.7846  141.7267  160.4564 C.ar    1  UNL1        0.0851
     10 N         138.2737  142.6012  159.3500 N.ar    1  UNL1       -0.2119
     11 C         138.1084  142.0422  157.9678 C.ar    1  UNL1        0.2219
     12 O         137.5975  142.9167  156.8613 O.3     1  UNL1       -0.4676
     13 C         138.9499  142.2855  161.8385 C.ar    1  UNL1        0.0284
     14 C         140.1879  143.0545  162.1935 C.ar    1  UNL1        0.0032
     15 C         140.3532  143.6134  163.5757 C.ar    1  UNL1        0.0115
     16 C         139.2805  143.4032  164.6029 C.ar    1  UNL1        0.0585
     17 CL        139.4458  143.9621  165.9850 Cl      1  UNL1       -0.0822
     18 C         138.0425  142.6343  164.2479 C.ar    1  UNL1        0.0228
     19 C         137.8772  142.0754  162.8657 C.ar    1  UNL1        0.0599
     20 CL        137.1714  141.7047  162.8616 Cl      1  UNL1       -0.0822
     21 C         139.6413  139.4188  161.2871 C.ar    1  UNL1        0.0015
     22 C         141.0948  139.4492  161.6566 C.ar    1  UNL1        0.0009
     23 C         141.6057  138.5747  162.7631 C.ar    1  UNL1        0.0114
     24 C         140.6632  137.6698  163.5000 C.ar    1  UNL1        0.0577
     25 CL        141.1741  136.7953  164.6064 Cl      1  UNL1       -0.0822
     26 C         139.2098  137.6395  163.1304 C.ar    1  UNL1        0.0114
     27 C         138.6988  138.5140  162.0239 C.ar    1  UNL1        0.0009
     28 N         138.6345  138.6167  156.0342 N.am    1  UNL1       -0.3018
     29 C         139.9858  138.2629  155.4875 C.2     1  UNL1        0.2256
     30 O         140.9914  139.3424  155.2166 O.2     1  UNL1       -0.2750
     31 H         137.9745  137.9082  156.2120 H       1  UNL1        0.1497
     32 C         140.3315  136.8295  155.2118 C.3     1  UNL1        0.1291
     33 C         141.4589  136.1739  155.9528 C.3     1  UNL1        0.2722
     34 O         141.3375  137.1973  157.0427 O.3     1  UNL1       -0.3725
     35 H         142.0957  137.1217  157.6431 H       1  UNL1        0.2108
     36 C         142.5863  135.5184  156.6939 C.3     1  UNL1        0.4279
     37 F         143.7137  134.8628  157.4350 F       1  UNL1       -0.1672
     38 F         143.3011  136.8348  156.7708 F       1  UNL1       -0.1672
     39 F         142.2484  134.6996  156.7021 F       1  UNL1       -0.1672
     40 C         141.5802  135.1506  154.8629 C.3     1  UNL1        0.4279
     41 F         141.7016  134.1272  153.7730 F       1  UNL1       -0.1672
     42 F         140.8690  134.6716  155.0848 F       1  UNL1       -0.1672
     43 F         142.8087  135.8420  154.3505 F       1  UNL1       -0.1672
@<TRIPOS>BOND
     1     1     2    1
     2     2     3    1
     3     2     4    1
     4     4     5    1
     5     5    28    1
     6    28    29   am
     7    29    30    2
     8    29    32    1
     9    32    33    1
    10    33    34    1
    11    33    36    1
    12    36    37    1
    13    36    38    1
    14    36    39    1
    15    33    40    1
    16    40    41    1
    17    40    42    1
    18    40    43    1
    19     5     6    1
    20     6     7   ar
    21     7     8   ar
    22     8    21    1
    23    21    22   ar
    24    22    23   ar
    25    23    24   ar
    26    24    25    1
    27    24    26   ar
    28    26    27   ar
    29     8     9   ar
    30     9    13    1
    31    13    14   ar
    32    14    15   ar
    33    15    16   ar
    34    16    17    1
    35    16    18   ar
    36    18    19   ar
    37    19    20    1
    38     9    10   ar
    39    10    11   ar
    40    11    12    1
    41    12     2    1
    42    11     6   ar
    43    27    21   ar
    44    19    13   ar
    45    28    31    1
    46    34    35    1
@<TRIPOS>MOLECULE
*****
 43 46 0 0 0
SMALL
GASTEIGER

@<TRIPOS>ATOM
      1 C         145.7307  140.7321  155.4222 C.3     1  UNL1        0.0437
      2 C         144.7300  139.6640  155.7507 C.3     1  UNL1        0.1368
      3 C         145.0324  139.3081  154.3252 C.3     1  UNL1        0.0437
      4 C         143.8344  138.4724  155.5841 C.3     1  UNL1        0.0643
      5 C         142.9839  138.0075  156.7289 C.3     1  UNL1        0.1020
      6 C         143.0291  138.7343  158.0403 C.ar    1  UNL1        0.0488
      7 C         142.1786  138.2695  159.1851 C.ar    1  UNL1        0.0034
      8 C         142.2237  138.9963  160.4964 C.ar    1  UNL1        0.0177
      9 C         143.1193  140.1880  160.6630 C.ar    1  UNL1        0.0851
     10 N         143.9698  140.6529  159.5182 N.ar    1  UNL1       -0.2119
     11 C         143.9247  139.9260  158.2068 C.ar    1  UNL1        0.2219
     12 O         144.7752  140.3908  157.0620 O.3     1  UNL1       -0.4676
     13 C         143.1645  140.9148  161.9744 C.ar    1  UNL1        0.0284
     14 C         142.1938  142.0246  162.2506 C.ar    1  UNL1        0.0032
     15 C         142.2390  142.7514  163.5619 C.ar    1  UNL1        0.0115
     16 C         143.2547  142.3685  164.5971 C.ar    1  UNL1        0.0585
     17 CL        143.2998  143.0953  165.9085 Cl      1  UNL1       -0.0822
     18 C         144.2253  141.2587  164.3210 C.ar    1  UNL1        0.0228
     19 C         144.1802  140.5319  163.0096 C.ar    1  UNL1        0.0599
     20 CL        144.7595  139.9851  163.0414 Cl      1  UNL1       -0.0822
     21 C         141.3732  138.5314  161.6412 C.ar    1  UNL1        0.0015
     22 C         139.9376  138.9574  161.7304 C.ar    1  UNL1        0.0009
     23 C         139.0871  138.4925  162.8752 C.ar    1  UNL1        0.0114
     24 C         139.6722  137.6018  163.9308 C.ar    1  UNL1        0.0577
     25 CL        138.8217  137.1369  165.0756 Cl      1  UNL1       -0.0822
     26 C         141.1077  137.1759  163.8417 C.ar    1  UNL1        0.0114
     27 C         141.9582  137.6407  162.6969 C.ar    1  UNL1        0.0009
     28 N         142.0883  136.8158  156.5623 N.am    1  UNL1       -0.3018
     29 C         142.6706  135.4876  156.1794 C.2     1  UNL1        0.2256
     30 O         144.1486  135.3510  155.9630 O.2     1  UNL1       -0.2750
     31 H         141.1182  136.9054  156.7044 H       1  UNL1        0.1497
     32 C         141.7750  134.2959  156.0128 C.3     1  UNL1        0.1291
     33 C         142.3259  132.9125  156.1936 C.3     1  UNL1        0.2722
     34 O         142.8632  133.3023  157.5387 O.3     1  UNL1       -0.3725
     35 H         143.4514  132.6041  157.8666 H       1  UNL1        0.2108
     36 C         142.8768  131.5292  156.3744 C.3     1  UNL1        0.4279
     37 F         143.4277  130.1457  156.5551 F       1  UNL1       -0.1672
     38 F         144.2490  132.1016  156.5731 F       1  UNL1       -0.1672
     39 F         142.1122  131.0941  156.2709 F       1  UNL1       -0.1672
     40 C         141.7886  132.5228  154.8485 C.3     1  UNL1        0.4279
     41 F         141.2512  132.1330  153.5033 F       1  UNL1       -0.1672
     42 F         140.9419  132.4326  155.0924 F       1  UNL1       -0.1672
     43 F         143.1672  132.6287  154.2670 F       1  UNL1       -0.1672
@<TRIPOS>BOND
     1     1     2    1
     2     2     3    1
     3     2     4    1
     4     4     5    1
     5     5    28    1
     6    28    29   am
     7    29    30    2
     8    29    32    1
     9    32    33    1
    10    33    34    1
    11    33    36    1
    12    36    37    1
    13    36    38    1
    14    36    39    1
    15    33    40    1
    16    40    41    1
    17    40    42    1
    18    40    43    1
    19     5     6    1
    20     6     7   ar
    21     7     8   ar
    22     8    21    1
    23    21    22   ar
    24    22    23   ar
    25    23    24   ar
    26    24    25    1
    27    24    26   ar
    28    26    27   ar
    29     8     9   ar
    30     9    13    1
    31    13    14   ar
    32    14    15   ar
    33    15    16   ar
    34    16    17    1
    35    16    18   ar
    36    18    19   ar
    37    19    20    1
    38     9    10   ar
    39    10    11   ar
    40    11    12    1
    41    12     2    1
    42    11     6   ar
    43    27    21   ar
    44    19    13   ar
    45    28    31    1
    46    34    35    1
@<TRIPOS>MOLECULE
*****
 43 46 0 0 0
SMALL
GASTEIGER

@<TRIPOS>ATOM
      1 C         143.7438  145.1325  163.7055 C.3     1  UNL1        0.0437
      2 C         142.8636  143.9573  163.3985 C.3     1  UNL1        0.1368
      3 C         143.2621  143.6237  164.8056 C.3     1  UNL1        0.0437
      4 C         142.1218  142.6664  163.5801 C.3     1  UNL1        0.0643
      5 C         141.2871  142.1171  162.4614 C.3     1  UNL1        0.1020
      6 C         141.1943  142.8589  161.1609 C.ar    1  UNL1        0.0488
      7 C         140.3596  142.3096  160.0421 C.ar    1  UNL1        0.0034
      8 C         140.2668  143.0514  158.7417 C.ar    1  UNL1        0.0177
      9 C         141.0086  144.3424  158.5600 C.ar    1  UNL1        0.0851
     10 N         141.8433  144.8917  159.6788 N.ar    1  UNL1       -0.2119
     11 C         141.9361  144.1498  160.9793 C.ar    1  UNL1        0.2219
     12 O         142.7707  144.6991  162.0981 O.3     1  UNL1       -0.4676
     13 C         140.9158  145.0841  157.2596 C.ar    1  UNL1        0.0284
     14 C         139.8722  146.1457  157.0744 C.ar    1  UNL1        0.0032
     15 C         139.7794  146.8874  155.7740 C.ar    1  UNL1        0.0115
     16 C         140.7301  146.5677  154.6587 C.ar    1  UNL1        0.0585
     17 CL        140.6372  147.3094  153.3583 Cl      1  UNL1       -0.0822
     18 C         141.7736  145.5063  154.8438 C.ar    1  UNL1        0.0228
     19 C         141.8665  144.7644  156.1443 C.ar    1  UNL1        0.0599
     20 CL        142.4683  144.2484  156.0604 Cl      1  UNL1       -0.0822
     21 C         139.4322  142.5021  157.6229 C.ar    1  UNL1        0.0015
     22 C         137.9854  142.8821  157.5101 C.ar    1  UNL1        0.0009
     23 C         137.1508  142.3328  156.3913 C.ar    1  UNL1        0.0114
     24 C         137.7629  141.4036  155.3853 C.ar    1  UNL1        0.0577
     25 CL        136.9282  140.8544  154.2665 Cl      1  UNL1       -0.0822
     26 C         139.2095  141.0237  155.4981 C.ar    1  UNL1        0.0114
     27 C         140.0442  141.5730  156.6169 C.ar    1  UNL1        0.0009
     28 N         140.5453  140.8261  162.6430 N.am    1  UNL1       -0.3018
     29 C         141.2238  139.5225  162.3425 C.2     1  UNL1        0.2256
     30 O         142.6441  139.5099  161.8603 O.2     1  UNL1       -0.2750
     31 H         139.6131  140.8343  162.9596 H       1  UNL1        0.1497
     32 C         140.4819  138.2315  162.5242 C.3     1  UNL1        0.1291
     33 C         139.6660  138.0031  163.7619 C.3     1  UNL1        0.2722
     34 O         138.4222  138.3750  163.0105 O.3     1  UNL1       -0.3725
     35 H         137.6860  138.4764  163.6339 H       1  UNL1        0.2108
     36 C         138.8500  137.7747  164.9996 C.3     1  UNL1        0.4279
     37 F         138.0339  137.5463  166.2374 F       1  UNL1       -0.1672
     38 F         138.4326  139.2154  164.9903 F       1  UNL1       -0.1672
     39 F         139.0358  136.9139  165.0942 F       1  UNL1       -0.1672
     40 C         140.9097  137.6312  164.5133 C.3     1  UNL1        0.4279
     41 F         142.1536  137.2592  165.2647 F       1  UNL1       -0.1672
     42 F         140.8630  138.2716  165.1233 F       1  UNL1       -0.1672
     43 F         141.1424  136.4928  163.5647 F       1  UNL1       -0.1672
@<TRIPOS>BOND
     1     1     2    1
     2     2     3    1
     3     2     4    1
     4     4     5    1
     5     5    28    1
     6    28    29   am
     7    29    30    2
     8    29    32    1
     9    32    33    1
    10    33    34    1
    11    33    36    1
    12    36    37    1
    13    36    38    1
    14    36    39    1
    15    33    40    1
    16    40    41    1
    17    40    42    1
    18    40    43    1
    19     5     6    1
    20     6     7   ar
    21     7     8   ar
    22     8    21    1
    23    21    22   ar
    24    22    23   ar
    25    23    24   ar
    26    24    25    1
    27    24    26   ar
    28    26    27   ar
    29     8     9   ar
    30     9    13    1
    31    13    14   ar
    32    14    15   ar
    33    15    16   ar
    34    16    17    1
    35    16    18   ar
    36    18    19   ar
    37    19    20    1
    38     9    10   ar
    39    10    11   ar
    40    11    12    1
    41    12     2    1
    42    11     6   ar
    43    27    21   ar
    44    19    13   ar
    45    28    31    1
    46    34    35    1
@<TRIPOS>MOLECULE
*****
 43 46 0 0 0
SMALL
GASTEIGER

@<TRIPOS>ATOM
      1 C         137.1211  141.4454  155.3820 C.3     1  UNL1        0.0437
      2 C         138.0231  140.3966  155.9621 C.3     1  UNL1        0.1368
      3 C         137.8690  139.8653  154.5678 C.3     1  UNL1        0.0437
      4 C         138.8716  139.1634  156.0579 C.3     1  UNL1        0.0643
      5 C         139.5610  138.8256  157.3466 C.3     1  UNL1        0.1020
      6 C         139.4019  139.7211  158.5394 C.ar    1  UNL1        0.0488
      7 C         140.0913  139.3833  159.8281 C.ar    1  UNL1        0.0034
      8 C         139.9323  140.2787  161.0209 C.ar    1  UNL1        0.0177
      9 C         139.0838  141.5120  160.9250 C.ar    1  UNL1        0.0851
     10 N         138.3944  141.8498  159.6364 N.ar    1  UNL1       -0.2119
     11 C         138.5535  140.9543  158.4435 C.ar    1  UNL1        0.2219
     12 O         137.8641  141.2921  157.1549 O.3     1  UNL1       -0.4676
     13 C         138.9247  142.4075  162.1178 C.ar    1  UNL1        0.0284
     14 C         139.8645  143.5586  162.3222 C.ar    1  UNL1        0.0032
     15 C         139.7055  144.4541  163.5150 C.ar    1  UNL1        0.0115
     16 C         138.6066  144.1984  164.5035 C.ar    1  UNL1        0.0585
     17 CL        138.4475  145.0939  165.6963 Cl      1  UNL1       -0.0822
     18 C         137.6668  143.0474  164.2992 C.ar    1  UNL1        0.0228
     19 C         137.8258  142.1519  163.1064 C.ar    1  UNL1        0.0599
     20 CL        137.2478  141.6058  163.1630 Cl      1  UNL1       -0.0822
     21 C         140.6217  139.9410  162.3095 C.ar    1  UNL1        0.0015
     22 C         139.9528  139.0388  163.3039 C.ar    1  UNL1        0.0009
     23 C         140.6421  138.7010  164.5925 C.ar    1  UNL1        0.0114
     24 C         142.0004  139.2654  164.8868 C.ar    1  UNL1        0.0577
     25 CL        142.6898  138.9276  166.1755 Cl      1  UNL1       -0.0822
     26 C         142.6693  140.1676  163.8925 C.ar    1  UNL1        0.0114
     27 C         141.9799  140.5053  162.6038 C.ar    1  UNL1        0.0009
     28 N         140.4095  137.5923  157.4424 N.am    1  UNL1       -0.3018
     29 C         141.6959  137.5056  156.6759 C.2     1  UNL1        0.2256
     30 O         142.1338  138.6521  155.8135 O.2     1  UNL1       -0.2750
     31 H         140.1221  136.8398  158.0084 H       1  UNL1        0.1497
     32 C         142.5444  136.2723  156.7717 C.3     1  UNL1        0.1291
     33 C         142.1675  135.0410  156.0024 C.3     1  UNL1        0.2722
     34 O         141.0862  135.8094  155.3022 O.3     1  UNL1       -0.3725
     35 H         140.5203  135.1950  154.8091 H       1  UNL1        0.2108
     36 C         141.7905  133.8097  155.2332 C.3     1  UNL1        0.4279
     37 F         141.4136  132.5783  154.4639 F       1  UNL1       -0.1672
     38 F         143.0296  133.9511  154.3997 F       1  UNL1       -0.1672
     39 F         141.0372  133.6382  155.6663 F       1  UNL1       -0.1672
     40 C         143.2487  134.2725  156.7026 C.3     1  UNL1        0.4279
     41 F         144.3300  133.5040  157.4029 F       1  UNL1       -0.1672
     42 F         142.7313  133.6332  157.0313 F       1  UNL1       -0.1672
     43 F         144.2644  135.2690  156.2279 F       1  UNL1       -0.1672
@<TRIPOS>BOND
     1     1     2    1
     2     2     3    1
     3     2     4    1
     4     4     5    1
     5     5    28    1
     6    28    29   am
     7    29    30    2
     8    29    32    1
     9    32    33    1
    10    33    34    1
    11    33    36    1
    12    36    37    1
    13    36    38    1
    14    36    39    1
    15    33    40    1
    16    40    41    1
    17    40    42    1
    18    40    43    1
    19     5     6    1
    20     6     7   ar
    21     7     8   ar
    22     8    21    1
    23    21    22   ar
    24    22    23   ar
    25    23    24   ar
    26    24    25    1
    27    24    26   ar
    28    26    27   ar
    29     8     9   ar
    30     9    13    1
    31    13    14   ar
    32    14    15   ar
    33    15    16   ar
    34    16    17    1
    35    16    18   ar
    36    18    19   ar
    37    19    20    1
    38     9    10   ar
    39    10    11   ar
    40    11    12    1
    41    12     2    1
    42    11     6   ar
    43    27    21   ar
    44    19    13   ar
    45    28    31    1
    46    34    35    1
@<TRIPOS>MOLECULE
*****
 43 46 0 0 0
SMALL
GASTEIGER

@<TRIPOS>ATOM
      1 C         138.4740  137.2573  154.9792 C.3     1  UNL1        0.0437
      2 C         139.7239  138.0623  155.1788 C.3     1  UNL1        0.1368
      3 C         139.7427  137.9180  153.6858 C.3     1  UNL1        0.0437
      4 C         140.9803  138.8172  154.8599 C.3     1  UNL1        0.0643
      5 C         141.7839  139.4367  155.9646 C.3     1  UNL1        0.1020
      6 C         141.3311  139.3015  157.3882 C.ar    1  UNL1        0.0488
      7 C         142.1347  139.9211  158.4929 C.ar    1  UNL1        0.0034
      8 C         141.6819  139.7858  159.9165 C.ar    1  UNL1        0.0177
      9 C         140.4254  139.0309  160.2355 C.ar    1  UNL1        0.0851
     10 N         139.6219  138.4113  159.1307 N.ar    1  UNL1       -0.2119
     11 C         140.0747  138.5466  157.7071 C.ar    1  UNL1        0.2219
     12 O         139.2712  137.9271  156.6024 O.3     1  UNL1       -0.4676
     13 C         139.9727  138.8956  161.6590 C.ar    1  UNL1        0.0284
     14 C         138.9336  139.8283  162.2075 C.ar    1  UNL1        0.0032
     15 C         138.4808  139.6930  163.6310 C.ar    1  UNL1        0.0115
     16 C         139.0670  138.6251  164.5063 C.ar    1  UNL1        0.0585
     17 CL        138.6143  138.4899  165.9299 Cl      1  UNL1       -0.0822
     18 C         140.1060  137.6926  163.9579 C.ar    1  UNL1        0.0228
     19 C         140.5589  137.8278  162.5343 C.ar    1  UNL1        0.0599
     20 CL        141.1046  137.2576  162.4222 Cl      1  UNL1       -0.0822
     21 C         142.4854  140.4054  161.0212 C.ar    1  UNL1        0.0015
     22 C         142.1039  141.7514  161.5622 C.ar    1  UNL1        0.0009
     23 C         142.9074  142.3710  162.6669 C.ar    1  UNL1        0.0114
     24 C         144.0926  141.6445  163.2307 C.ar    1  UNL1        0.0577
     25 CL        144.8962  142.2641  164.3354 Cl      1  UNL1       -0.0822
     26 C         144.4741  140.2985  162.6897 C.ar    1  UNL1        0.0114
     27 C         143.6705  139.6790  161.5850 C.ar    1  UNL1        0.0009
     28 N         143.0403  140.1916  155.6457 N.am    1  UNL1       -0.3018
     29 C         144.3438  139.4600  155.5217 C.2     1  UNL1        0.2256
     30 O         144.3910  137.9734  155.7165 O.2     1  UNL1       -0.2750
     31 H         143.0093  141.1673  155.5178 H       1  UNL1        0.1497
     32 C         145.6002  140.2148  155.2027 C.3     1  UNL1        0.1291
     33 C         146.1002  141.2706  156.1436 C.3     1  UNL1        0.2722
     34 O         145.4385  140.5632  157.2889 O.3     1  UNL1       -0.3725
     35 H         145.4578  141.1317  158.0747 H       1  UNL1        0.2108
     36 C         146.6002  142.3263  157.0846 C.3     1  UNL1        0.4279
     37 F         147.1002  143.3821  158.0255 F       1  UNL1       -0.1672
     38 F         145.2071  142.5220  157.6052 F       1  UNL1       -0.1672
     39 F         147.4527  142.2876  156.8472 F       1  UNL1       -0.1672
     40 C         146.7619  141.9779  154.9984 C.3     1  UNL1        0.4279
     41 F         147.4237  142.6853  153.8530 F       1  UNL1       -0.1672
     42 F         147.4721  141.4516  154.9422 F       1  UNL1       -0.1672
     43 F         145.6315  142.9628  154.9535 F       1  UNL1       -0.1672
@<TRIPOS>BOND
     1     1     2    1
     2     2     3    1
     3     2     4    1
     4     4     5    1
     5     5    28    1
     6    28    29   am
     7    29    30    2
     8    29    32    1
     9    32    33    1
    10    33    34    1
    11    33    36    1
    12    36    37    1
    13    36    38    1
    14    36    39    1
    15    33    40    1
    16    40    41    1
    17    40    42    1
    18    40    43    1
    19     5     6    1
    20     6     7   ar
    21     7     8   ar
    22     8    21    1
    23    21    22   ar
    24    22    23   ar
    25    23    24   ar
    26    24    25    1
    27    24    26   ar
    28    26    27   ar
    29     8     9   ar
    30     9    13    1
    31    13    14   ar
    32    14    15   ar
    33    15    16   ar
    34    16    17    1
    35    16    18   ar
    36    18    19   ar
    37    19    20    1
    38     9    10   ar
    39    10    11   ar
    40    11    12    1
    41    12     2    1
    42    11     6   ar
    43    27    21   ar
    44    19    13   ar
    45    28    31    1
    46    34    35    1
@<TRIPOS>MOLECULE
*****
 43 46 0 0 0
SMALL
GASTEIGER

@<TRIPOS>ATOM
      1 C         139.0750  147.4990  155.5445 C.3     1  UNL1        0.0437
      2 C         140.2819  146.6085  155.5606 C.3     1  UNL1        0.1368
      3 C         140.3108  147.0606  154.1306 C.3     1  UNL1        0.0437
      4 C         141.4989  145.8750  155.0801 C.3     1  UNL1        0.0643
      5 C         142.2678  144.9987  156.0239 C.3     1  UNL1        0.1020
      6 C         141.8198  144.8558  157.4483 C.ar    1  UNL1        0.0488
      7 C         142.5888  143.9795  158.3921 C.ar    1  UNL1        0.0034
      8 C         142.1407  143.8367  159.8164 C.ar    1  UNL1        0.0177
      9 C         140.9237  144.5702  160.2970 C.ar    1  UNL1        0.0851
     10 N         140.1548  145.4465  159.3532 N.ar    1  UNL1       -0.2119
     11 C         140.6029  145.5893  157.9288 C.ar    1  UNL1        0.2219
     12 O         139.8339  146.4656  156.9850 O.3     1  UNL1       -0.4676
     13 C         140.4757  144.4274  161.7214 C.ar    1  UNL1        0.0284
     14 C         141.1358  145.2345  162.7998 C.ar    1  UNL1        0.0032
     15 C         140.6877  145.0916  164.2242 C.ar    1  UNL1        0.0115
     16 C         139.5796  144.1417  164.5702 C.ar    1  UNL1        0.0585
     17 CL        139.1316  143.9989  165.9945 Cl      1  UNL1       -0.0822
     18 C         138.9195  143.3346  163.4918 C.ar    1  UNL1        0.0228
     19 C         139.3676  143.4774  162.0674 C.ar    1  UNL1        0.0599
     20 CL        138.9116  142.9801  161.6428 Cl      1  UNL1       -0.0822
     21 C         142.9097  142.9604  160.7603 C.ar    1  UNL1        0.0015
     22 C         144.0818  143.5163  161.5135 C.ar    1  UNL1        0.0009
     23 C         144.8507  142.6400  162.4573 C.ar    1  UNL1        0.0114
     24 C         144.4475  141.2077  162.6479 C.ar    1  UNL1        0.0577
     25 CL        145.2165  140.3314  163.5917 Cl      1  UNL1       -0.0822
     26 C         143.2755  140.6519  161.8947 C.ar    1  UNL1        0.0114
     27 C         142.5066  141.5282  160.9509 C.ar    1  UNL1        0.0009
     28 N         143.4849  144.2652  155.5433 N.am    1  UNL1       -0.3018
     29 C         143.3395  142.9372  154.8611 C.2     1  UNL1        0.2256
     30 O         141.9772  142.3427  154.6595 O.2     1  UNL1       -0.2750
     31 H         144.3790  144.6553  155.6757 H       1  UNL1        0.1497
     32 C         144.5566  142.2037  154.3805 C.3     1  UNL1        0.1291
     33 C         145.8114  142.2135  155.2023 C.3     1  UNL1        0.2722
     34 O         146.0915  143.6185  154.7578 O.3     1  UNL1       -0.3725
     35 H         146.9895  143.8693  155.0254 H       1  UNL1        0.2108
     36 C         147.0662  142.2233  156.0240 C.3     1  UNL1        0.4279
     37 F         148.3211  142.2330  156.8458 F       1  UNL1       -0.1672
     38 F         146.3590  143.0001  157.0947 F       1  UNL1       -0.1672
     39 F         147.5710  141.7687  155.4556 F       1  UNL1       -0.1672
     40 C         145.5313  140.8085  155.6467 C.3     1  UNL1        0.4279
     41 F         145.2511  139.4035  156.0911 F       1  UNL1       -0.1672
     42 F         145.4165  140.9880  156.5064 F       1  UNL1       -0.1672
     43 F         145.6926  140.3296  154.2344 F       1  UNL1       -0.1672
@<TRIPOS>BOND
     1     1     2    1
     2     2     3    1
     3     2     4    1
     4     4     5    1
     5     5    28    1
     6    28    29   am
     7    29    30    2
     8    29    32    1
     9    32    33    1
    10    33    34    1
    11    33    36    1
    12    36    37    1
    13    36    38    1
    14    36    39    1
    15    33    40    1
    16    40    41    1
    17    40    42    1
    18    40    43    1
    19     5     6    1
    20     6     7   ar
    21     7     8   ar
    22     8    21    1
    23    21    22   ar
    24    22    23   ar
    25    23    24   ar
    26    24    25    1
    27    24    26   ar
    28    26    27   ar
    29     8     9   ar
    30     9    13    1
    31    13    14   ar
    32    14    15   ar
    33    15    16   ar
    34    16    17    1
    35    16    18   ar
    36    18    19   ar
    37    19    20    1
    38     9    10   ar
    39    10    11   ar
    40    11    12    1
    41    12     2    1
    42    11     6   ar
    43    27    21   ar
    44    19    13   ar
    45    28    31    1
    46    34    35    1
@<TRIPOS>MOLECULE
*****
 43 46 0 0 0
SMALL
GASTEIGER

@<TRIPOS>ATOM
      1 C         140.3674  144.0407  169.9514 C.3     1  UNL1        0.0437
      2 C         141.1058  142.7686  169.6568 C.3     1  UNL1        0.1368
      3 C         141.2764  142.8300  171.1458 C.3     1  UNL1        0.0437
      4 C         141.9034  141.5180  169.8794 C.3     1  UNL1        0.0643
      5 C         142.2740  140.6476  168.7152 C.3     1  UNL1        0.1020
      6 C         141.8470  141.0280  167.3285 C.ar    1  UNL1        0.0488
      7 C         142.2176  140.1577  166.1644 C.ar    1  UNL1        0.0034
      8 C         141.7905  140.5380  164.7777 C.ar    1  UNL1        0.0177
      9 C         140.9929  141.7888  164.5551 C.ar    1  UNL1        0.0851
     10 N         140.6223  142.6591  165.7193 N.ar    1  UNL1       -0.2119
     11 C         141.0494  142.2787  167.1060 C.ar    1  UNL1        0.2219
     12 O         140.6788  143.1490  168.2701 O.3     1  UNL1       -0.4676
     13 C         140.5659  142.1691  163.1684 C.ar    1  UNL1        0.0284
     14 C         141.4793  142.9810  162.2985 C.ar    1  UNL1        0.0032
     15 C         141.0522  143.3614  160.9119 C.ar    1  UNL1        0.0115
     16 C         139.7118  142.9299  160.3950 C.ar    1  UNL1        0.0585
     17 CL        139.2848  143.3103  159.0083 Cl      1  UNL1       -0.0822
     18 C         138.7984  142.1181  161.2648 C.ar    1  UNL1        0.0228
     19 C         139.2254  141.7377  162.6516 C.ar    1  UNL1        0.0599
     20 CL        138.6232  141.3153  162.9588 Cl      1  UNL1       -0.0822
     21 C         142.1611  139.6677  163.6136 C.ar    1  UNL1        0.0015
     22 C         143.4804  139.8575  162.9253 C.ar    1  UNL1        0.0009
     23 C         143.8509  138.9872  161.7612 C.ar    1  UNL1        0.0114
     24 C         142.9023  137.9271  161.2853 C.ar    1  UNL1        0.0577
     25 CL        143.2728  137.0568  160.1212 Cl      1  UNL1       -0.0822
     26 C         141.5831  137.7374  161.9736 C.ar    1  UNL1        0.0114
     27 C         141.2125  138.6077  163.1377 C.ar    1  UNL1        0.0009
     28 N         143.0717  139.3969  168.9378 N.am    1  UNL1       -0.3018
     29 C         142.7295  138.4818  170.0760 C.2     1  UNL1        0.2256
     30 O         141.5898  138.8173  170.9916 O.2     1  UNL1       -0.2750
     31 H         143.8197  139.1767  168.3369 H       1  UNL1        0.1497
     32 C         143.5272  137.2310  170.2986 C.3     1  UNL1        0.1291
     33 C         144.5437  137.1759  171.4002 C.3     1  UNL1        0.2722
     34 O         144.4948  138.6703  171.5201 O.3     1  UNL1       -0.3725
     35 H         145.2153  138.9722  172.0951 H       1  UNL1        0.2108
     36 C         145.5603  137.1208  172.5018 C.3     1  UNL1        0.4279
     37 F         146.5768  137.0656  173.6034 F       1  UNL1       -0.1672
     38 F         146.6205  136.7569  171.5051 F       1  UNL1       -0.1672
     39 F         145.0120  137.3301  173.1652 F       1  UNL1       -0.1672
     40 C         144.5926  135.6815  171.2802 C.3     1  UNL1        0.4279
     41 F         144.6416  134.1871  171.1603 F       1  UNL1       -0.1672
     42 F         144.2311  135.4981  172.0677 F       1  UNL1       -0.1672
     43 F         145.2155  135.8109  169.9219 F       1  UNL1       -0.1672
@<TRIPOS>BOND
     1     1     2    1
     2     2     3    1
     3     2     4    1
     4     4     5    1
     5     5    28    1
     6    28    29   am
     7    29    30    2
     8    29    32    1
     9    32    33    1
    10    33    34    1
    11    33    36    1
    12    36    37    1
    13    36    38    1
    14    36    39    1
    15    33    40    1
    16    40    41    1
    17    40    42    1
    18    40    43    1
    19     5     6    1
    20     6     7   ar
    21     7     8   ar
    22     8    21    1
    23    21    22   ar
    24    22    23   ar
    25    23    24   ar
    26    24    25    1
    27    24    26   ar
    28    26    27   ar
    29     8     9   ar
    30     9    13    1
    31    13    14   ar
    32    14    15   ar
    33    15    16   ar
    34    16    17    1
    35    16    18   ar
    36    18    19   ar
    37    19    20    1
    38     9    10   ar
    39    10    11   ar
    40    11    12    1
    41    12     2    1
    42    11     6   ar
    43    27    21   ar
    44    19    13   ar
    45    28    31    1
    46    34    35    1
@<TRIPOS>MOLECULE
*****
 43 46 0 0 0
SMALL
GASTEIGER

@<TRIPOS>ATOM
      1 C         137.6728  144.3899  163.7561 C.3     1  UNL1        0.0437
      2 C         138.8451  143.5413  163.3613 C.3     1  UNL1        0.1368
      3 C         139.1949  143.8188  164.7934 C.3     1  UNL1        0.0437
      4 C         140.1388  142.7892  163.4639 C.3     1  UNL1        0.0643
      5 C         140.6756  142.0542  162.2715 C.3     1  UNL1        0.1020
      6 C         139.9188  142.0715  160.9766 C.ar    1  UNL1        0.0488
      7 C         140.4556  141.3365  159.7843 C.ar    1  UNL1        0.0034
      8 C         139.6988  141.3538  158.4894 C.ar    1  UNL1        0.0177
      9 C         138.4050  142.1059  158.3868 C.ar    1  UNL1        0.0851
     10 N         137.8682  142.8409  159.5791 N.ar    1  UNL1       -0.2119
     11 C         138.6251  142.8236  160.8741 C.ar    1  UNL1        0.2219
     12 O         138.0883  143.5586  162.0664 O.3     1  UNL1       -0.4676
     13 C         137.6482  142.1232  157.0918 C.ar    1  UNL1        0.0284
     14 C         136.6312  141.0589  156.8033 C.ar    1  UNL1        0.0032
     15 C         135.8744  141.0761  155.5084 C.ar    1  UNL1        0.0115
     16 C         136.1344  142.1576  154.5020 C.ar    1  UNL1        0.0585
     17 CL        135.3776  142.1748  153.2071 Cl      1  UNL1       -0.0822
     18 C         137.1513  143.2218  154.7905 C.ar    1  UNL1        0.0228
     19 C         137.9082  143.2046  156.0855 C.ar    1  UNL1        0.0599
     20 CL        138.3957  143.8350  156.0634 Cl      1  UNL1       -0.0822
     21 C         140.2356  140.6188  157.2970 C.ar    1  UNL1        0.0015
     22 C         139.8560  139.1862  157.0656 C.ar    1  UNL1        0.0009
     23 C         140.3928  138.4513  155.8733 C.ar    1  UNL1        0.0114
     24 C         141.3093  139.1490  154.9124 C.ar    1  UNL1        0.0577
     25 CL        141.8462  138.4140  153.7200 Cl      1  UNL1       -0.0822
     26 C         141.6889  140.5815  155.1438 C.ar    1  UNL1        0.0114
     27 C         141.1521  141.3165  156.3361 C.ar    1  UNL1        0.0009
     28 N         141.9694  141.3021  162.3742 N.am    1  UNL1       -0.3018
     29 C         143.2515  141.9533  161.9474 C.2     1  UNL1        0.2256
     30 O         143.2398  143.3567  161.4179 O.2     1  UNL1       -0.2750
     31 H         141.9771  140.3810  162.7216 H       1  UNL1        0.1497
     32 C         144.5452  141.2011  162.0500 C.3     1  UNL1        0.1291
     33 C         144.7986  140.3012  163.2229 C.3     1  UNL1        0.2722
     34 O         144.4581  139.1076  162.3807 O.3     1  UNL1       -0.3725
     35 H         144.3780  138.3243  162.9473 H       1  UNL1        0.2108
     36 C         145.0519  139.4012  164.3959 C.3     1  UNL1        0.4279
     37 F         145.3053  138.5012  165.5689 F       1  UNL1       -0.1672
     38 F         143.6136  138.9756  164.3800 F       1  UNL1       -0.1672
     39 F         145.9131  139.5859  164.4897 F       1  UNL1       -0.1672
     40 C         145.1390  141.4947  164.0652 C.3     1  UNL1        0.4279
     41 F         145.4796  142.6884  164.9074 F       1  UNL1       -0.1672
     42 F         144.4940  141.3924  164.6634 F       1  UNL1       -0.1672
     43 F         146.2816  141.8161  163.1479 F       1  UNL1       -0.1672
@<TRIPOS>BOND
     1     1     2    1
     2     2     3    1
     3     2     4    1
     4     4     5    1
     5     5    28    1
     6    28    29   am
     7    29    30    2
     8    29    32    1
     9    32    33    1
    10    33    34    1
    11    33    36    1
    12    36    37    1
    13    36    38    1
    14    36    39    1
    15    33    40    1
    16    40    41    1
    17    40    42    1
    18    40    43    1
    19     5     6    1
    20     6     7   ar
    21     7     8   ar
    22     8    21    1
    23    21    22   ar
    24    22    23   ar
    25    23    24   ar
    26    24    25    1
    27    24    26   ar
    28    26    27   ar
    29     8     9   ar
    30     9    13    1
    31    13    14   ar
    32    14    15   ar
    33    15    16   ar
    34    16    17    1
    35    16    18   ar
    36    18    19   ar
    37    19    20    1
    38     9    10   ar
    39    10    11   ar
    40    11    12    1
    41    12     2    1
    42    11     6   ar
    43    27    21   ar
    44    19    13   ar
    45    28    31    1
    46    34    35    1
