@<TRIPOS>MOLECULE
*****
 38 41 0 0 0
SMALL
GASTEIGER

@<TRIPOS>ATOM
      1 C         140.7954  141.9755  165.7711 C.ar    1  UNL1        0.1214
      2 N         140.2752  141.8067  167.1679 N.ar    1  UNL1       -0.1677
      3 N         140.9448  140.6071  167.7701 N.ar    1  UNL1       -0.2508
      4 C         141.8789  140.0346  166.7454 C.ar    1  UNL1        0.0796
      5 C         142.8016  138.8524  166.7778 C.ar    1  UNL1        0.0219
      6 C         143.6319  138.5160  165.5748 C.ar    1  UNL1        0.0386
      7 C         143.5396  139.3617  164.3393 C.ar    1  UNL1        0.1444
      8 C         142.6169  140.5439  164.3070 C.ar    1  UNL1        0.0402
      9 C         141.7865  140.8803  165.5100 C.ar    1  UNL1        0.0412
     10 C         140.9479  144.4000  161.0253 C.ar    1  UNL1        0.0930
     11 C         140.2224  145.6309  160.5685 C.ar    1  UNL1        0.1067
     12 N         139.3854  146.1261  161.7104 N.ar    1  UNL1       -0.2252
     13 C         139.5935  145.2014  162.8730 C.ar    1  UNL1        0.1586
     14 N         139.0284  145.1929  164.2625 N.ar    1  UNL1       -0.3349
     15 C         139.4291  144.1177  165.2285 C.ar    1  UNL1        0.0945
     16 C         140.3948  143.0508  164.8050 C.ar    1  UNL1        0.1176
     17 N         140.9598  143.0593  163.4156 N.ar    1  UNL1       -0.2390
     18 C         140.5592  144.1346  162.4496 C.ar    1  UNL1        0.1210
     19 H         138.3946  145.8931  164.5404 H       1  UNL1        0.1675
     20 N         142.0861  142.1225  160.5079 N.am    1  UNL1       -0.3039
     21 C         141.8956  143.5787  160.2024 C.2     1  UNL1        0.2488
     22 O         142.6529  144.2135  159.0739 O.2     1  UNL1       -0.2700
     23 H         141.5890  141.7058  161.2486 H       1  UNL1        0.1496
     24 C         144.1577  141.6767  160.6047 C.3     1  UNL1        0.0196
     25 C         143.0339  141.3012  159.6850 C.3     1  UNL1        0.0572
     26 C         141.9099  140.9258  158.7652 C.3     1  UNL1        0.0196
     27 C         143.9816  140.4800  158.8621 C.3     1  UNL1        0.0196
     28 C         140.7199  140.0737  169.1539 C.3     1  UNL1        0.1293
     29 C         141.7684  140.2621  170.2098 C.3     1  UNL1        0.0516
     30 C         141.7549  141.4914  171.0693 C.3     1  UNL1        0.1530
     31 S         141.1599  142.7654  170.5467 S.O2    1  UNL1       -0.0082
     32 C         140.5651  144.0393  170.0240 C.3     1  UNL1        0.1760
     33 O         139.9487  142.5521  171.4053 O.2     1  UNL1       -0.1729
     34 O         142.3713  142.9787  169.6879 O.2     1  UNL1       -0.1729
     35 O         144.3699  139.0252  163.1364 O.3     1  UNL1       -0.4236
     36 C         143.7575  138.2817  161.9864 C.3     1  UNL1        0.5087
     37 F         142.3739  138.6273  161.5215 F       1  UNL1       -0.1550
     38 F         144.5287  137.1926  161.3014 F       1  UNL1       -0.1550
@<TRIPOS>BOND
     1    24    25    1
     2    25    26    1
     3    25    27    1
     4    25    20    1
     5    20    21   am
     6    21    22    2
     7    21    10    1
     8    10    11   ar
     9    11    12   ar
    10    12    13   ar
    11    13    14   ar
    12    14    15   ar
    13    15    16   ar
    14    16     1    1
    15     1     2   ar
    16     2     3   ar
    17     3    28    1
    18    28    29    1
    19    29    30    1
    20    30    31    1
    21    31    32    1
    22    31    33    2
    23    31    34    2
    24     3     4   ar
    25     4     5   ar
    26     5     6   ar
    27     6     7   ar
    28     7    35    1
    29    35    36    1
    30    36    37    1
    31    36    38    1
    32     7     8   ar
    33     8     9   ar
    34    16    17   ar
    35    17    18   ar
    36    18    10   ar
    37    18    13    1
    38     9     1   ar
    39     9     4   ar
    40    20    23    1
    41    14    19    1
@<TRIPOS>MOLECULE
*****
 38 41 0 0 0
SMALL
GASTEIGER

@<TRIPOS>ATOM
      1 C         139.3677  141.8316  165.2257 C.ar    1  UNL1        0.1214
      2 N         138.7189  140.5246  164.8779 N.ar    1  UNL1       -0.1677
      3 N         138.8094  139.6285  166.0774 N.ar    1  UNL1       -0.2508
      4 C         139.5141  140.3817  167.1665 C.ar    1  UNL1        0.0796
      5 C         139.8861  140.0036  168.5696 C.ar    1  UNL1        0.0219
      6 C         140.6032  140.9870  169.4462 C.ar    1  UNL1        0.0386
      7 C         140.9482  142.3486  168.9199 C.ar    1  UNL1        0.1444
      8 C         140.5762  142.7267  167.5168 C.ar    1  UNL1        0.0402
      9 C         139.8591  141.7432  166.6402 C.ar    1  UNL1        0.0412
     10 C         140.4798  144.1396  160.5502 C.ar    1  UNL1        0.0930
     11 C         140.4281  145.5913  160.1763 C.ar    1  UNL1        0.1067
     12 N         139.9889  146.3656  161.3836 N.ar    1  UNL1       -0.2252
     13 C         139.7691  145.3924  162.5037 C.ar    1  UNL1        0.1586
     14 N         139.3320  145.5812  163.9260 N.ar    1  UNL1       -0.3349
     15 C         139.1981  144.3943  164.8334 C.ar    1  UNL1        0.0945
     16 C         139.5015  143.0186  164.3183 C.ar    1  UNL1        0.1176
     17 N         139.9387  142.8297  162.8959 N.ar    1  UNL1       -0.2390
     18 C         140.0725  144.0166  161.9886 C.ar    1  UNL1        0.1210
     19 H         139.1328  146.4842  164.2641 H       1  UNL1        0.1675
     20 N         140.8097  141.5951  160.1415 N.am    1  UNL1       -0.3039
     21 C         140.8702  143.0092  159.6447 C.2     1  UNL1        0.2488
     22 O         141.3210  143.2928  158.2426 O.2     1  UNL1       -0.2700
     23 H         140.5138  141.4089  161.0619 H       1  UNL1        0.1496
     24 C         139.7792  140.3475  158.7699 C.3     1  UNL1        0.0196
     25 C         141.2001  140.4647  159.2361 C.3     1  UNL1        0.0572
     26 C         142.6210  140.5820  159.7023 C.3     1  UNL1        0.0196
     27 C         141.5905  139.3344  158.3306 C.3     1  UNL1        0.0196
     28 C         138.2869  138.2256  166.1712 C.3     1  UNL1        0.1293
     29 C         138.7746  137.1781  165.2147 C.3     1  UNL1        0.0516
     30 C         140.1760  137.2415  164.6837 C.3     1  UNL1        0.1530
     31 S         140.4177  137.5869  163.2442 S.O2    1  UNL1       -0.0082
     32 C         140.6595  137.9323  161.8047 C.3     1  UNL1        0.1760
     33 O         138.9488  137.4618  162.9675 O.2     1  UNL1       -0.1729
     34 O         141.8867  137.7120  163.5209 O.2     1  UNL1       -0.1729
     35 O         141.6653  143.3320  169.7966 O.3     1  UNL1       -0.4236
     36 C         143.0470  143.0253  170.2937 C.3     1  UNL1        0.5087
     37 F         143.7502  143.9925  171.1991 F       1  UNL1       -0.1550
     38 F         143.7253  141.7512  169.8853 F       1  UNL1       -0.1550
@<TRIPOS>BOND
     1    24    25    1
     2    25    26    1
     3    25    27    1
     4    25    20    1
     5    20    21   am
     6    21    22    2
     7    21    10    1
     8    10    11   ar
     9    11    12   ar
    10    12    13   ar
    11    13    14   ar
    12    14    15   ar
    13    15    16   ar
    14    16     1    1
    15     1     2   ar
    16     2     3   ar
    17     3    28    1
    18    28    29    1
    19    29    30    1
    20    30    31    1
    21    31    32    1
    22    31    33    2
    23    31    34    2
    24     3     4   ar
    25     4     5   ar
    26     5     6   ar
    27     6     7   ar
    28     7    35    1
    29    35    36    1
    30    36    37    1
    31    36    38    1
    32     7     8   ar
    33     8     9   ar
    34    16    17   ar
    35    17    18   ar
    36    18    10   ar
    37    18    13    1
    38     9     1   ar
    39     9     4   ar
    40    20    23    1
    41    14    19    1
@<TRIPOS>MOLECULE
*****
 38 41 0 0 0
SMALL
GASTEIGER

@<TRIPOS>ATOM
      1 C         141.3134  141.9478  164.9687 C.ar    1  UNL1        0.1214
      2 N         141.9124  142.0864  166.3370 N.ar    1  UNL1       -0.1677
      3 N         142.2902  140.7170  166.8185 N.ar    1  UNL1       -0.2508
      4 C         141.9246  139.7320  165.7479 C.ar    1  UNL1        0.0796
      5 C         142.0634  138.2407  165.6662 C.ar    1  UNL1        0.0219
      6 C         141.5986  137.5101  164.4415 C.ar    1  UNL1        0.0386
      7 C         140.9949  138.2708  163.2982 C.ar    1  UNL1        0.1444
      8 C         140.8561  139.7621  163.3799 C.ar    1  UNL1        0.0402
      9 C         141.3209  140.4927  164.6047 C.ar    1  UNL1        0.0412
     10 C         141.0545  144.7350  160.4313 C.ar    1  UNL1        0.0930
     11 C         140.2353  145.9507  160.1137 C.ar    1  UNL1        0.1067
     12 N         139.4387  146.3046  161.3344 N.ar    1  UNL1       -0.2252
     13 C         139.7655  145.3076  162.4064 C.ar    1  UNL1        0.1586
     14 N         139.2828  145.1578  163.8186 N.ar    1  UNL1       -0.3349
     15 C         139.7988  144.0379  164.6727 C.ar    1  UNL1        0.0945
     16 C         140.7974  143.0678  164.1146 C.ar    1  UNL1        0.1176
     17 N         141.2801  143.2176  162.7023 N.ar    1  UNL1       -0.2390
     18 C         140.7642  144.3375  161.8482 C.ar    1  UNL1        0.1210
     19 H         138.6274  145.7946  164.1850 H       1  UNL1        0.1675
     20 N         142.3430  142.5955  159.7153 N.am    1  UNL1       -0.3039
     21 C         141.9983  144.0389  159.4961 C.2     1  UNL1        0.2488
     22 O         142.5975  144.7859  158.3417 O.2     1  UNL1       -0.2700
     23 H         141.9497  142.1051  160.4730 H       1  UNL1        0.1496
     24 C         142.1271  141.4618  157.9355 C.3     1  UNL1        0.0196
     25 C         143.2869  141.8993  158.7802 C.3     1  UNL1        0.0572
     26 C         144.4466  142.3369  159.6249 C.3     1  UNL1        0.0196
     27 C         144.2306  141.2032  157.8450 C.3     1  UNL1        0.0196
     28 C         142.9224  140.3899  168.1388 C.3     1  UNL1        0.1293
     29 C         143.0411  141.4474  169.1960 C.3     1  UNL1        0.0516
     30 C         142.2437  141.3356  170.4615 C.3     1  UNL1        0.1530
     31 S         140.9972  142.1513  170.6370 S.O2    1  UNL1       -0.0082
     32 C         139.7507  142.9672  170.8125 C.3     1  UNL1        0.1760
     33 O         140.5216  141.1976  171.6925 O.2     1  UNL1       -0.1729
     34 O         141.4728  143.1051  169.5814 O.2     1  UNL1       -0.1729
     35 O         140.5301  137.5402  162.0735 O.3     1  UNL1       -0.4236
     36 C         139.3441  138.0431  161.3050 C.3     1  UNL1        0.5087
     37 F         137.9565  137.7805  161.8105 F       1  UNL1       -0.1550
     38 F         139.5458  138.8087  160.0309 F       1  UNL1       -0.1550
@<TRIPOS>BOND
     1    24    25    1
     2    25    26    1
     3    25    27    1
     4    25    20    1
     5    20    21   am
     6    21    22    2
     7    21    10    1
     8    10    11   ar
     9    11    12   ar
    10    12    13   ar
    11    13    14   ar
    12    14    15   ar
    13    15    16   ar
    14    16     1    1
    15     1     2   ar
    16     2     3   ar
    17     3    28    1
    18    28    29    1
    19    29    30    1
    20    30    31    1
    21    31    32    1
    22    31    33    2
    23    31    34    2
    24     3     4   ar
    25     4     5   ar
    26     5     6   ar
    27     6     7   ar
    28     7    35    1
    29    35    36    1
    30    36    37    1
    31    36    38    1
    32     7     8   ar
    33     8     9   ar
    34    16    17   ar
    35    17    18   ar
    36    18    10   ar
    37    18    13    1
    38     9     1   ar
    39     9     4   ar
    40    20    23    1
    41    14    19    1
@<TRIPOS>MOLECULE
*****
 38 41 0 0 0
SMALL
GASTEIGER

@<TRIPOS>ATOM
      1 C         140.5698  142.1041  165.5082 C.ar    1  UNL1        0.1214
      2 N         139.7496  142.0050  166.7602 N.ar    1  UNL1       -0.1677
      3 N         140.2925  140.8735  167.5818 N.ar    1  UNL1       -0.2508
      4 C         141.4483  140.2732  166.8375 C.ar    1  UNL1        0.0796
      5 C         142.3668  139.1324  167.1611 C.ar    1  UNL1        0.0219
      6 C         143.4566  138.7520  166.2033 C.ar    1  UNL1        0.0386
      7 C         143.6280  139.5125  164.9218 C.ar    1  UNL1        0.1444
      8 C         142.7095  140.6534  164.5981 C.ar    1  UNL1        0.0402
      9 C         141.6196  141.0338  165.5560 C.ar    1  UNL1        0.0412
     10 C         140.5633  143.5758  160.3840 C.ar    1  UNL1        0.0930
     11 C         140.2300  144.9093  159.7835 C.ar    1  UNL1        0.1067
     12 N         139.8719  145.8441  160.9006 N.ar    1  UNL1       -0.2252
     13 C         139.9838  145.0883  162.1914 C.ar    1  UNL1        0.1586
     14 N         139.7518  145.4955  163.6163 N.ar    1  UNL1       -0.3349
     15 C         139.9472  144.5008  164.7219 C.ar    1  UNL1        0.0945
     16 C         140.3745  143.0988  164.4026 C.ar    1  UNL1        0.1176
     17 N         140.6065  142.6916  162.9777 N.ar    1  UNL1       -0.2390
     18 C         140.4111  143.6863  161.8721 C.ar    1  UNL1        0.1210
     19 H         139.4714  146.4156  163.8259 H       1  UNL1        0.1675
     20 N         141.9609  141.3907  160.2336 N.am    1  UNL1       -0.3039
     21 C         140.9763  142.3472  159.6288 C.2     1  UNL1        0.2488
     22 O         140.4048  142.0752  158.2690 O.2     1  UNL1       -0.2700
     23 H         142.3360  141.5692  161.1262 H       1  UNL1        0.1496
     24 C         143.4571  140.9450  158.7975 C.3     1  UNL1        0.0196
     25 C         142.3738  140.1621  159.4785 C.3     1  UNL1        0.0572
     26 C         141.2905  139.3794  160.1595 C.3     1  UNL1        0.0196
     27 C         142.7868  138.9337  158.7234 C.3     1  UNL1        0.0196
     28 C         139.7711  140.4217  168.9137 C.3     1  UNL1        0.1293
     29 C         140.7281  140.0864  170.0191 C.3     1  UNL1        0.0516
     30 C         141.3557  141.1839  170.8263 C.3     1  UNL1        0.1530
     31 S         142.6122  141.8455  170.3434 S.O2    1  UNL1       -0.0082
     32 C         143.8689  142.5071  169.8604 C.3     1  UNL1        0.1760
     33 O         141.9554  143.1878  170.4732 O.2     1  UNL1       -0.1729
     34 O         143.2691  140.5032  170.2135 O.2     1  UNL1       -0.1729
     35 O         144.7179  139.1321  163.9640 O.3     1  UNL1       -0.4236
     36 C         144.4750  139.2017  162.4854 C.3     1  UNL1        0.5087
     37 F         144.7786  140.4639  161.7340 F       1  UNL1       -0.1550
     38 F         143.9284  138.0090  161.7582 F       1  UNL1       -0.1550
@<TRIPOS>BOND
     1    24    25    1
     2    25    26    1
     3    25    27    1
     4    25    20    1
     5    20    21   am
     6    21    22    2
     7    21    10    1
     8    10    11   ar
     9    11    12   ar
    10    12    13   ar
    11    13    14   ar
    12    14    15   ar
    13    15    16   ar
    14    16     1    1
    15     1     2   ar
    16     2     3   ar
    17     3    28    1
    18    28    29    1
    19    29    30    1
    20    30    31    1
    21    31    32    1
    22    31    33    2
    23    31    34    2
    24     3     4   ar
    25     4     5   ar
    26     5     6   ar
    27     6     7   ar
    28     7    35    1
    29    35    36    1
    30    36    37    1
    31    36    38    1
    32     7     8   ar
    33     8     9   ar
    34    16    17   ar
    35    17    18   ar
    36    18    10   ar
    37    18    13    1
    38     9     1   ar
    39     9     4   ar
    40    20    23    1
    41    14    19    1
@<TRIPOS>MOLECULE
*****
 38 41 0 0 0
SMALL
GASTEIGER

@<TRIPOS>ATOM
      1 C         141.0722  139.7513  164.5554 C.ar    1  UNL1        0.1214
      2 N         142.1175  138.7815  164.0897 N.ar    1  UNL1       -0.1677
      3 N         142.8785  139.4235  162.9678 N.ar    1  UNL1       -0.2508
      4 C         142.3035  140.7902  162.7402 C.ar    1  UNL1        0.0796
      5 C         142.6522  141.8763  161.7662 C.ar    1  UNL1        0.0219
      6 C         141.8846  143.1650  161.7734 C.ar    1  UNL1        0.0386
      7 C         140.7682  143.3676  162.7546 C.ar    1  UNL1        0.1444
      8 C         140.4195  142.2814  163.7286 C.ar    1  UNL1        0.0402
      9 C         141.1871  140.9927  163.7214 C.ar    1  UNL1        0.0412
     10 C         139.3281  140.3033  169.5632 C.ar    1  UNL1        0.0930
     11 C         138.0767  139.7675  170.1932 C.ar    1  UNL1        0.1067
     12 N         137.3246  138.9979  169.1482 N.ar    1  UNL1       -0.2252
     13 C         138.1112  139.0580  167.8724 C.ar    1  UNL1        0.1586
     14 N         137.8599  138.4823  166.5102 N.ar    1  UNL1       -0.3349
     15 C         138.8469  138.7134  165.4046 C.ar    1  UNL1        0.0945
     16 C         140.0852  139.5202  165.6611 C.ar    1  UNL1        0.1176
     17 N         140.3365  140.0959  167.0232 N.ar    1  UNL1       -0.2390
     18 C         139.3495  139.8648  168.1289 C.ar    1  UNL1        0.1210
     19 H         137.0472  137.9528  166.3419 H       1  UNL1        0.1675
     20 N         141.3309  141.9533  169.4343 N.am    1  UNL1       -0.3039
     21 C         140.3746  141.1321  170.2474 C.2     1  UNL1        0.2488
     22 O         140.4647  141.1397  171.7446 O.2     1  UNL1       -0.2700
     23 H         141.2718  141.9483  168.4515 H       1  UNL1        0.1496
     24 C         143.3607  141.6584  169.9754 C.3     1  UNL1        0.0196
     25 C         142.3774  142.7821  170.1185 C.3     1  UNL1        0.0572
     26 C         141.3940  143.9057  170.2614 C.3     1  UNL1        0.0196
     27 C         143.4237  143.6108  170.8026 C.3     1  UNL1        0.0196
     28 C         144.0149  138.8072  162.2071 C.3     1  UNL1        0.1293
     29 C         143.7426  138.0182  160.9608 C.3     1  UNL1        0.0516
     30 C         142.3554  137.9690  160.3924 C.3     1  UNL1        0.1530
     31 S         142.0335  138.7195  159.1342 S.O2    1  UNL1       -0.0082
     32 C         141.7116  139.4700  157.8760 C.3     1  UNL1        0.1760
     33 O         140.5852  138.7509  159.5234 O.2     1  UNL1       -0.1729
     34 O         143.4818  138.6881  158.7449 O.2     1  UNL1       -0.1729
     35 O         140.0007  144.6562  162.7618 O.3     1  UNL1       -0.4236
     36 C         138.7900  144.8033  163.6351 C.3     1  UNL1        0.5087
     37 F         138.9471  145.1874  165.0765 F       1  UNL1       -0.1550
     38 F         137.4221  144.5661  163.0669 F       1  UNL1       -0.1550
@<TRIPOS>BOND
     1    24    25    1
     2    25    26    1
     3    25    27    1
     4    25    20    1
     5    20    21   am
     6    21    22    2
     7    21    10    1
     8    10    11   ar
     9    11    12   ar
    10    12    13   ar
    11    13    14   ar
    12    14    15   ar
    13    15    16   ar
    14    16     1    1
    15     1     2   ar
    16     2     3   ar
    17     3    28    1
    18    28    29    1
    19    29    30    1
    20    30    31    1
    21    31    32    1
    22    31    33    2
    23    31    34    2
    24     3     4   ar
    25     4     5   ar
    26     5     6   ar
    27     6     7   ar
    28     7    35    1
    29    35    36    1
    30    36    37    1
    31    36    38    1
    32     7     8   ar
    33     8     9   ar
    34    16    17   ar
    35    17    18   ar
    36    18    10   ar
    37    18    13    1
    38     9     1   ar
    39     9     4   ar
    40    20    23    1
    41    14    19    1
@<TRIPOS>MOLECULE
*****
 38 41 0 0 0
SMALL
GASTEIGER

@<TRIPOS>ATOM
      1 C         139.5830  140.5590  164.4467 C.ar    1  UNL1        0.1214
      2 N         138.9636  140.1116  165.7376 N.ar    1  UNL1       -0.1677
      3 N         139.8928  140.4890  166.8529 N.ar    1  UNL1       -0.2508
      4 C         141.0866  141.1696  166.2514 C.ar    1  UNL1        0.0796
      5 C         142.3232  141.7556  166.8656 C.ar    1  UNL1        0.0219
      6 C         143.3683  142.3848  165.9929 C.ar    1  UNL1        0.0386
      7 C         143.1768  142.4281  164.5057 C.ar    1  UNL1        0.1444
      8 C         141.9401  141.8421  163.8915 C.ar    1  UNL1        0.0402
      9 C         140.8950  141.2129  164.7643 C.ar    1  UNL1        0.0412
     10 C         138.8408  142.0045  159.3690 C.ar    1  UNL1        0.0930
     11 C         138.0180  141.3379  158.3066 C.ar    1  UNL1        0.1067
     12 N         137.3841  140.1187  158.9081 N.ar    1  UNL1       -0.2252
     13 C         137.8151  140.0318  160.3422 C.ar    1  UNL1        0.1586
     14 N         137.5041  139.0421  161.4255 N.ar    1  UNL1       -0.3349
     15 C         138.0934  139.2178  162.7937 C.ar    1  UNL1        0.0945
     16 C         138.9937  140.3833  163.0785 C.ar    1  UNL1        0.1176
     17 N         139.3047  141.3731  161.9952 N.ar    1  UNL1       -0.2390
     18 C         138.7154  141.1973  160.6271 C.ar    1  UNL1        0.1210
     19 H         136.9133  138.2771  161.2386 H       1  UNL1        0.1675
     20 N         140.5124  143.4381  157.9903 N.am    1  UNL1       -0.3039
     21 C         139.6473  143.2582  159.2025 C.2     1  UNL1        0.2488
     22 O         139.5889  144.3320  160.2482 O.2     1  UNL1       -0.2700
     23 H         140.5507  142.7333  157.3039 H       1  UNL1        0.1496
     24 C         140.1516  145.3537  157.1534 C.3     1  UNL1        0.0196
     25 C         141.3189  144.6918  157.8238 C.3     1  UNL1        0.0572
     26 C         142.4861  144.0299  158.4942 C.3     1  UNL1        0.0196
     27 C         142.1254  145.9455  157.6573 C.3     1  UNL1        0.0196
     28 C         139.6679  140.2310  168.3133 C.3     1  UNL1        0.1293
     29 C         139.7229  141.3660  169.2925 C.3     1  UNL1        0.0516
     30 C         140.6627  141.3045  170.4600 C.3     1  UNL1        0.1530
     31 S         141.8566  142.2111  170.5102 S.O2    1  UNL1       -0.0082
     32 C         143.0504  143.1179  170.5605 C.3     1  UNL1        0.1760
     33 O         142.7646  141.0183  170.4611 O.2     1  UNL1       -0.1729
     34 O         140.9485  143.4041  170.5593 O.2     1  UNL1       -0.1729
     35 O         144.2219  143.0573  163.6330 O.3     1  UNL1       -0.4236
     36 C         145.2455  142.1988  162.9507 C.3     1  UNL1        0.5087
     37 F         145.2821  142.1221  161.4532 F       1  UNL1       -0.1550
     38 F         146.2324  141.4170  163.7662 F       1  UNL1       -0.1550
@<TRIPOS>BOND
     1    24    25    1
     2    25    26    1
     3    25    27    1
     4    25    20    1
     5    20    21   am
     6    21    22    2
     7    21    10    1
     8    10    11   ar
     9    11    12   ar
    10    12    13   ar
    11    13    14   ar
    12    14    15   ar
    13    15    16   ar
    14    16     1    1
    15     1     2   ar
    16     2     3   ar
    17     3    28    1
    18    28    29    1
    19    29    30    1
    20    30    31    1
    21    31    32    1
    22    31    33    2
    23    31    34    2
    24     3     4   ar
    25     4     5   ar
    26     5     6   ar
    27     6     7   ar
    28     7    35    1
    29    35    36    1
    30    36    37    1
    31    36    38    1
    32     7     8   ar
    33     8     9   ar
    34    16    17   ar
    35    17    18   ar
    36    18    10   ar
    37    18    13    1
    38     9     1   ar
    39     9     4   ar
    40    20    23    1
    41    14    19    1
@<TRIPOS>MOLECULE
*****
 38 41 0 0 0
SMALL
GASTEIGER

@<TRIPOS>ATOM
      1 C         139.5843  141.9063  165.3457 C.ar    1  UNL1        0.1214
      2 N         139.8744  142.0163  166.8133 N.ar    1  UNL1       -0.1677
      3 N         139.7644  140.6452  167.4116 N.ar    1  UNL1       -0.2508
      4 C         139.4063  139.6878  166.3137 C.ar    1  UNL1        0.0796
      5 C         139.1672  138.2070  166.3117 C.ar    1  UNL1        0.0219
      6 C         138.8169  137.5057  165.0330 C.ar    1  UNL1        0.0386
      7 C         138.7056  138.2851  163.7561 C.ar    1  UNL1        0.1444
      8 C         138.9447  139.7659  163.7581 C.ar    1  UNL1        0.0402
      9 C         139.2951  140.4673  165.0370 C.ar    1  UNL1        0.0412
     10 C         140.6950  144.0822  160.6069 C.ar    1  UNL1        0.0930
     11 C         140.4132  145.4708  160.1146 C.ar    1  UNL1        0.1067
     12 N         139.7256  146.2223  161.2157 N.ar    1  UNL1       -0.2252
     13 C         139.5824  145.2982  162.3885 C.ar    1  UNL1        0.1586
     14 N         138.9839  145.4903  163.7504 N.ar    1  UNL1       -0.3349
     15 C         138.9846  144.3597  164.7361 C.ar    1  UNL1        0.0945
     16 C         139.5837  143.0370  164.3599 C.ar    1  UNL1        0.1176
     17 N         140.1822  142.8449  162.9980 N.ar    1  UNL1       -0.2390
     18 C         140.1816  143.9756  162.0123 C.ar    1  UNL1        0.1210
     19 H         138.5907  146.3584  163.9973 H       1  UNL1        0.1675
     20 N         142.4215  142.1444  160.4860 N.am    1  UNL1       -0.3039
     21 C         141.3716  142.9917  159.8303 C.2     1  UNL1        0.2488
     22 O         140.9983  142.7484  158.3981 O.2     1  UNL1       -0.2700
     23 H         142.6666  142.3041  161.4261 H       1  UNL1        0.1496
     24 C         142.0597  140.0773  160.1764 C.3     1  UNL1        0.0196
     25 C         143.0980  141.0539  159.7094 C.3     1  UNL1        0.0572
     26 C         144.1363  142.0306  159.2424 C.3     1  UNL1        0.0196
     27 C         143.7745  139.9635  158.9328 C.3     1  UNL1        0.0196
     28 C         139.9753  140.2933  168.8544 C.3     1  UNL1        0.1293
     29 C         140.2030  141.3778  169.8653 C.3     1  UNL1        0.0516
     30 C         141.4212  141.3442  170.7398 C.3     1  UNL1        0.1530
     31 S         142.7130  141.9278  170.2491 S.O2    1  UNL1       -0.0082
     32 C         144.0048  142.5112  169.7584 C.3     1  UNL1        0.1760
     33 O         142.1752  143.3094  170.4764 O.2     1  UNL1       -0.1729
     34 O         143.2508  140.5460  170.0217 O.2     1  UNL1       -0.1729
     35 O         138.3553  137.5836  162.4774 O.3     1  UNL1       -0.4236
     36 C         138.3235  138.3479  161.1871 C.3     1  UNL1        0.5087
     37 F         139.4125  138.1546  160.1739 F       1  UNL1       -0.1550
     38 F         137.2027  139.3056  160.9100 F       1  UNL1       -0.1550
@<TRIPOS>BOND
     1    24    25    1
     2    25    26    1
     3    25    27    1
     4    25    20    1
     5    20    21   am
     6    21    22    2
     7    21    10    1
     8    10    11   ar
     9    11    12   ar
    10    12    13   ar
    11    13    14   ar
    12    14    15   ar
    13    15    16   ar
    14    16     1    1
    15     1     2   ar
    16     2     3   ar
    17     3    28    1
    18    28    29    1
    19    29    30    1
    20    30    31    1
    21    31    32    1
    22    31    33    2
    23    31    34    2
    24     3     4   ar
    25     4     5   ar
    26     5     6   ar
    27     6     7   ar
    28     7    35    1
    29    35    36    1
    30    36    37    1
    31    36    38    1
    32     7     8   ar
    33     8     9   ar
    34    16    17   ar
    35    17    18   ar
    36    18    10   ar
    37    18    13    1
    38     9     1   ar
    39     9     4   ar
    40    20    23    1
    41    14    19    1
@<TRIPOS>MOLECULE
*****
 38 41 0 0 0
SMALL
GASTEIGER

@<TRIPOS>ATOM
      1 C         140.0553  143.0255  164.4791 C.ar    1  UNL1        0.1214
      2 N         140.3779  143.7187  165.7696 N.ar    1  UNL1       -0.1677
      3 N         140.2427  142.7187  166.8794 N.ar    1  UNL1       -0.2508
      4 C         139.8365  141.4074  166.2747 C.ar    1  UNL1        0.0796
      5 C         139.5572  140.0651  166.8833 C.ar    1  UNL1        0.0219
      6 C         139.1620  138.9126  166.0085 C.ar    1  UNL1        0.0386
      7 C         139.0461  139.1022  164.5249 C.ar    1  UNL1        0.1444
      8 C         139.3255  140.4445  163.9164 C.ar    1  UNL1        0.0402
      9 C         139.7207  141.5970  164.7913 C.ar    1  UNL1        0.0412
     10 C         141.1207  143.0223  159.2552 C.ar    1  UNL1        0.0930
     11 C         140.8689  144.0956  158.2381 C.ar    1  UNL1        0.1067
     12 N         140.2293  145.2574  158.9389 N.ar    1  UNL1       -0.2252
     13 C         140.0858  144.9021  160.3892 C.ar    1  UNL1        0.1586
     14 N         139.5247  145.6579  161.5569 N.ar    1  UNL1       -0.3349
     15 C         139.5145  145.0324  162.9202 C.ar    1  UNL1        0.0945
     16 C         140.0655  143.6510  163.1157 C.ar    1  UNL1        0.1176
     17 N         140.6266  142.8952  161.9479 N.ar    1  UNL1       -0.2390
     18 C         140.6368  143.5207  160.5847 C.ar    1  UNL1        0.1210
     19 H         139.1631  146.5646  161.4286 H       1  UNL1        0.1675
     20 N         141.5492  140.5585  159.9601 N.am    1  UNL1       -0.3039
     21 C         141.7466  141.6852  158.9896 C.2     1  UNL1        0.2488
     22 O         142.5700  141.4748  157.7536 O.2     1  UNL1       -0.2700
     23 H         141.0088  140.6966  160.7713 H       1  UNL1        0.1496
     24 C         143.4120  139.6558  160.4235 C.3     1  UNL1        0.0196
     25 C         142.1751  139.2215  159.6944 C.3     1  UNL1        0.0572
     26 C         140.9381  138.7873  158.9654 C.3     1  UNL1        0.0196
     27 C         142.8010  137.8845  159.4288 C.3     1  UNL1        0.0196
     28 C         140.4732  142.9834  168.3377 C.3     1  UNL1        0.1293
     29 C         141.8344  142.7736  168.9320 C.3     1  UNL1        0.0516
     30 C         141.9699  142.2095  170.3152 C.3     1  UNL1        0.1530
     31 S         141.0815  141.0844  170.7567 S.O2    1  UNL1       -0.0082
     32 C         140.1932  139.9592  171.1981 C.3     1  UNL1        0.1760
     33 O         140.4874  141.9680  171.8132 O.2     1  UNL1       -0.1729
     34 O         141.6757  140.2007  169.7002 O.2     1  UNL1       -0.1729
     35 O         138.6509  137.9497  163.6502 O.3     1  UNL1       -0.4236
     36 C         139.2529  137.8042  162.2839 C.3     1  UNL1        0.5087
     37 F         138.4051  138.0142  161.0646 F       1  UNL1       -0.1550
     38 F         140.7028  137.4486  162.1372 F       1  UNL1       -0.1550
@<TRIPOS>BOND
     1    24    25    1
     2    25    26    1
     3    25    27    1
     4    25    20    1
     5    20    21   am
     6    21    22    2
     7    21    10    1
     8    10    11   ar
     9    11    12   ar
    10    12    13   ar
    11    13    14   ar
    12    14    15   ar
    13    15    16   ar
    14    16     1    1
    15     1     2   ar
    16     2     3   ar
    17     3    28    1
    18    28    29    1
    19    29    30    1
    20    30    31    1
    21    31    32    1
    22    31    33    2
    23    31    34    2
    24     3     4   ar
    25     4     5   ar
    26     5     6   ar
    27     6     7   ar
    28     7    35    1
    29    35    36    1
    30    36    37    1
    31    36    38    1
    32     7     8   ar
    33     8     9   ar
    34    16    17   ar
    35    17    18   ar
    36    18    10   ar
    37    18    13    1
    38     9     1   ar
    39     9     4   ar
    40    20    23    1
    41    14    19    1
@<TRIPOS>MOLECULE
*****
 38 41 0 0 0
SMALL
GASTEIGER

@<TRIPOS>ATOM
      1 C         142.7704  140.7561  164.1268 C.ar    1  UNL1        0.1214
      2 N         143.5166  140.1506  165.2786 N.ar    1  UNL1       -0.1677
      3 N         142.5155  139.7584  166.3246 N.ar    1  UNL1       -0.2508
      4 C         141.1507  140.1216  165.8192 C.ar    1  UNL1        0.0796
      5 C         139.7848  139.9705  166.4204 C.ar    1  UNL1        0.0219
      6 C         138.5765  140.4360  165.6634 C.ar    1  UNL1        0.0386
      7 C         138.7340  141.0526  164.3050 C.ar    1  UNL1        0.1444
      8 C         140.0999  141.2037  163.7038 C.ar    1  UNL1        0.0402
      9 C         141.3083  140.7382  164.4610 C.ar    1  UNL1        0.0412
     10 C         143.5964  140.7002  158.8601 C.ar    1  UNL1        0.0930
     11 C         144.4321  141.6236  158.0241 C.ar    1  UNL1        0.1067
     12 N         145.0511  142.6415  158.9356 N.ar    1  UNL1       -0.2252
     13 C         144.5979  142.3471  160.3349 C.ar    1  UNL1        0.1586
     14 N         144.8878  143.0166  161.6455 N.ar    1  UNL1       -0.3349
     15 C         144.2786  142.4863  162.9094 C.ar    1  UNL1        0.0945
     16 C         143.3796  141.2864  162.8628 C.ar    1  UNL1        0.1176
     17 N         143.0897  140.6170  161.5522 N.ar    1  UNL1       -0.2390
     18 C         143.6989  141.1473  160.2882 C.ar    1  UNL1        0.1210
     19 H         145.4779  143.8041  161.6761 H       1  UNL1        0.1675
     20 N         141.5720  139.7680  157.5247 N.am    1  UNL1       -0.3039
     21 C         142.7984  139.5342  158.3564 C.2     1  UNL1        0.2488
     22 O         143.2264  138.1346  158.6843 O.2     1  UNL1       -0.2700
     23 H         141.2910  140.6867  157.3094 H       1  UNL1        0.1496
     24 C         139.9442  138.6304  158.2703 C.3     1  UNL1        0.0196
     25 C         140.7740  138.6021  157.0210 C.3     1  UNL1        0.0572
     26 C         141.6037  138.5738  155.7717 C.3     1  UNL1        0.0196
     27 C         139.9759  137.4362  156.5174 C.3     1  UNL1        0.0196
     28 C         142.8250  139.1159  167.6443 C.3     1  UNL1        0.1293
     29 C         142.6741  139.9002  168.9139 C.3     1  UNL1        0.0516
     30 C         141.4861  139.6706  169.8005 C.3     1  UNL1        0.1530
     31 S         140.5122  140.7833  170.0526 S.O2    1  UNL1       -0.0082
     32 C         139.5384  141.8960  170.3045 C.3     1  UNL1        0.1760
     33 O         139.6375  139.8424  170.8267 O.2     1  UNL1       -0.1729
     34 O         141.3870  141.7243  169.2783 O.2     1  UNL1       -0.1729
     35 O         137.5256  141.5180  163.5480 O.3     1  UNL1       -0.4236
     36 C         137.5653  142.8156  162.7963 C.3     1  UNL1        0.5087
     37 F         137.7635  142.8153  161.3096 F       1  UNL1       -0.1550
     38 F         137.4069  144.1134  163.5317 F       1  UNL1       -0.1550
@<TRIPOS>BOND
     1    24    25    1
     2    25    26    1
     3    25    27    1
     4    25    20    1
     5    20    21   am
     6    21    22    2
     7    21    10    1
     8    10    11   ar
     9    11    12   ar
    10    12    13   ar
    11    13    14   ar
    12    14    15   ar
    13    15    16   ar
    14    16     1    1
    15     1     2   ar
    16     2     3   ar
    17     3    28    1
    18    28    29    1
    19    29    30    1
    20    30    31    1
    21    31    32    1
    22    31    33    2
    23    31    34    2
    24     3     4   ar
    25     4     5   ar
    26     5     6   ar
    27     6     7   ar
    28     7    35    1
    29    35    36    1
    30    36    37    1
    31    36    38    1
    32     7     8   ar
    33     8     9   ar
    34    16    17   ar
    35    17    18   ar
    36    18    10   ar
    37    18    13    1
    38     9     1   ar
    39     9     4   ar
    40    20    23    1
    41    14    19    1
