@<TRIPOS>MOLECULE
*****
 31 35 0 0 0
SMALL
GASTEIGER

@<TRIPOS>ATOM
      1 C         140.9906  138.5209  164.5761 C.ar    1  UNL1        0.0386
      2 C         141.0703  137.0586  164.2518 C.ar    1  UNL1        0.1220
      3 N         141.0343  136.9122  162.7594 N.ar    1  UNL1       -0.1635
      4 N         140.9323  138.2841  162.1614 N.ar    1  UNL1       -0.2281
      5 C         140.8605  138.7563  160.7395 C.ar    1  UNL1        0.1004
      6 C         140.7617  140.2229  160.4405 C.ar    1  UNL1        0.0207
      7 C         140.7346  141.2171  161.5633 C.ar    1  UNL1        0.0031
      8 C         140.8064  140.7448  162.9851 C.ar    1  UNL1        0.0192
      9 C         140.9052  139.2783  163.2842 C.ar    1  UNL1        0.0844
     10 C         141.0046  140.3200  168.7008 C.ar    1  UNL1        0.1057
     11 C         142.2952  139.9036  168.0598 C.ar    1  UNL1        0.0183
     12 C         142.2905  139.3039  166.6849 C.ar    1  UNL1        0.0014
     13 C         140.9953  139.1206  165.9510 C.ar    1  UNL1        0.0031
     14 C         139.7046  139.5370  166.5921 C.ar    1  UNL1        0.0014
     15 C         139.7093  140.1367  167.9670 C.ar    1  UNL1        0.0183
     16 C         141.0140  141.5193  171.4506 C.3     1  UNL1        0.1816
     17 S         141.0093  140.9197  170.0757 S.O2    1  UNL1        0.0104
     18 O         140.0410  139.8708  170.5365 O.2     1  UNL1       -0.1686
     19 O         141.9776  141.9686  169.6149 O.2     1  UNL1       -0.1686
     20 C         140.6358  142.6837  161.2642 C.ar    1  UNL1        0.0014
     21 C         140.3867  143.6606  162.3749 C.ar    1  UNL1        0.0001
     22 C         140.2879  145.1272  162.0758 C.ar    1  UNL1        0.0013
     23 C         140.4381  145.6168  160.6660 C.ar    1  UNL1        0.0183
     24 C         140.6872  144.6399  159.5552 C.ar    1  UNL1        0.1056
     25 C         140.7860  143.1734  159.8544 C.ar    1  UNL1        0.0183
     26 S         140.8375  145.1296  158.1454 S.O2    1  UNL1        0.0070
     27 O         142.0667  145.8925  158.5414 O.2     1  UNL1       -0.1687
     28 O         139.6082  144.3667  157.7494 O.2     1  UNL1       -0.1687
     29 C         140.9877  145.6193  156.7355 C.3     1  UNL1        0.1339
     30 C         141.6708  145.5493  155.4020 C.3     1  UNL1        0.0257
     31 C         140.5649  146.5373  155.6273 C.3     1  UNL1        0.0257
@<TRIPOS>BOND
     1    16    17    1
     2    17    18    2
     3    17    19    2
     4    17    10    1
     5    10    11   ar
     6    11    12   ar
     7    12    13   ar
     8    13     1    1
     9     1     2   ar
    10     2     3   ar
    11     3     4   ar
    12     4     5   ar
    13     5     6   ar
    14     6     7   ar
    15     7    20    1
    16    20    21   ar
    17    21    22   ar
    18    22    23   ar
    19    23    24   ar
    20    24    26    1
    21    26    27    2
    22    26    28    2
    23    26    29    1
    24    29    30    1
    25    30    31    1
    26    24    25   ar
    27     7     8   ar
    28     8     9   ar
    29    13    14   ar
    30    14    15   ar
    31    15    10   ar
    32     9     1   ar
    33     9     4   ar
    34    25    20   ar
    35    31    29    1
@<TRIPOS>MOLECULE
*****
 31 35 0 0 0
SMALL
GASTEIGER

@<TRIPOS>ATOM
      1 C         140.4242  143.1959  160.1736 C.ar    1  UNL1        0.0386
      2 C         140.3113  144.5739  159.5918 C.ar    1  UNL1        0.1220
      3 N         139.7446  145.4773  160.6466 N.ar    1  UNL1       -0.1635
      4 N         139.5073  144.6577  161.8803 N.ar    1  UNL1       -0.2281
      5 C         138.9630  145.0132  163.2321 C.ar    1  UNL1        0.1004
      6 C         138.8386  143.9586  164.2915 C.ar    1  UNL1        0.0207
      7 C         139.2586  142.5486  163.9991 C.ar    1  UNL1        0.0031
      8 C         139.8029  142.1932  162.6473 C.ar    1  UNL1        0.0192
      9 C         139.9273  143.2477  161.5879 C.ar    1  UNL1        0.0844
     10 C         141.9805  139.5471  158.0489 C.ar    1  UNL1        0.1057
     11 C         140.5948  140.0463  157.7650 C.ar    1  UNL1        0.0183
     12 C         140.0760  141.2626  158.4733 C.ar    1  UNL1        0.0014
     13 C         140.9429  141.9797  159.4653 C.ar    1  UNL1        0.0031
     14 C         142.3287  141.4804  159.7492 C.ar    1  UNL1        0.0014
     15 C         142.8474  140.2641  159.0410 C.ar    1  UNL1        0.0183
     16 C         143.0178  137.1145  156.6325 C.3     1  UNL1        0.1816
     17 S         142.4992  138.3308  157.3407 S.O2    1  UNL1        0.0104
     18 O         141.1556  137.6781  157.4777 O.2     1  UNL1       -0.1686
     19 O         143.8427  138.9836  157.2036 O.2     1  UNL1       -0.1686
     20 C         139.1343  141.4940  165.0586 C.ar    1  UNL1        0.0014
     21 C         138.1592  140.3676  164.8848 C.ar    1  UNL1        0.0001
     22 C         138.0348  139.3130  165.9443 C.ar    1  UNL1        0.0013
     23 C         138.8857  139.3849  167.1776 C.ar    1  UNL1        0.0183
     24 C         139.8608  140.5114  167.3513 C.ar    1  UNL1        0.1056
     25 C         139.9851  141.5659  166.2919 C.ar    1  UNL1        0.0183
     26 S         140.7117  140.5833  168.5846 S.O2    1  UNL1        0.0070
     27 O         141.6818  141.4715  167.8635 O.2     1  UNL1       -0.1687
     28 O         139.7416  139.6951  169.3056 O.2     1  UNL1       -0.1687
     29 C         141.5625  140.6552  169.8178 C.3     1  UNL1        0.1339
     30 C         141.8476  141.2463  171.1666 C.3     1  UNL1        0.0257
     31 C         142.7510  140.1887  170.6050 C.3     1  UNL1        0.0257
@<TRIPOS>BOND
     1    16    17    1
     2    17    18    2
     3    17    19    2
     4    17    10    1
     5    10    11   ar
     6    11    12   ar
     7    12    13   ar
     8    13     1    1
     9     1     2   ar
    10     2     3   ar
    11     3     4   ar
    12     4     5   ar
    13     5     6   ar
    14     6     7   ar
    15     7    20    1
    16    20    21   ar
    17    21    22   ar
    18    22    23   ar
    19    23    24   ar
    20    24    26    1
    21    26    27    2
    22    26    28    2
    23    26    29    1
    24    29    30    1
    25    30    31    1
    26    24    25   ar
    27     7     8   ar
    28     8     9   ar
    29    13    14   ar
    30    14    15   ar
    31    15    10   ar
    32     9     1   ar
    33     9     4   ar
    34    25    20   ar
    35    31    29    1
@<TRIPOS>MOLECULE
*****
 31 35 0 0 0
SMALL
GASTEIGER

@<TRIPOS>ATOM
      1 C         142.2440  138.6341  158.4368 C.ar    1  UNL1        0.0386
      2 C         142.4613  139.9561  157.7622 C.ar    1  UNL1        0.1220
      3 N         143.1547  139.7018  156.4566 N.ar    1  UNL1       -0.1635
      4 N         143.3660  138.2226  156.3244 N.ar    1  UNL1       -0.2281
      5 C         143.9982  137.3913  155.2477 C.ar    1  UNL1        0.1004
      6 C         144.0676  135.9002  155.3949 C.ar    1  UNL1        0.0207
      7 C         143.5047  135.2404  156.6188 C.ar    1  UNL1        0.0031
      8 C         142.8726  136.0717  157.6954 C.ar    1  UNL1        0.0192
      9 C         142.8032  137.5628  157.5483 C.ar    1  UNL1        0.0844
     10 C         140.2628  137.9944  162.4263 C.ar    1  UNL1        0.1057
     11 C         139.4383  138.3714  161.2313 C.ar    1  UNL1        0.0183
     12 C         140.0987  138.5846  159.9015 C.ar    1  UNL1        0.0014
     13 C         141.5836  138.4209  159.7666 C.ar    1  UNL1        0.0031
     14 C         142.4082  138.0439  160.9617 C.ar    1  UNL1        0.0014
     15 C         141.7477  137.8307  162.2915 C.ar    1  UNL1        0.0183
     16 C         138.9420  137.5679  165.0859 C.3     1  UNL1        0.1816
     17 S         139.6024  137.7812  163.7561 S.O2    1  UNL1        0.0104
     18 O         140.8130  137.0381  164.2381 O.2     1  UNL1       -0.1686
     19 O         138.3918  138.5243  163.2740 O.2     1  UNL1       -0.1686
     20 C         143.5741  133.7492  156.7659 C.ar    1  UNL1        0.0014
     21 C         144.6101  133.1309  157.6572 C.ar    1  UNL1        0.0001
     22 C         144.6795  131.6397  157.8044 C.ar    1  UNL1        0.0013
     23 C         143.7129  130.7669  157.0602 C.ar    1  UNL1        0.0183
     24 C         142.6769  131.3852  156.1688 C.ar    1  UNL1        0.1056
     25 C         142.6076  132.8763  156.0217 C.ar    1  UNL1        0.0183
     26 S         141.7103  130.5124  155.4246 S.O2    1  UNL1        0.0070
     27 O         142.3166  129.2974  156.0621 O.2     1  UNL1       -0.1687
     28 O         141.1040  131.7273  154.7872 O.2     1  UNL1       -0.1687
     29 C         140.7437  129.6395  154.6804 C.3     1  UNL1        0.1339
     30 C         139.9462  128.3728  154.5836 C.3     1  UNL1        0.0257
     31 C         139.8671  129.3945  153.4882 C.3     1  UNL1        0.0257
@<TRIPOS>BOND
     1    16    17    1
     2    17    18    2
     3    17    19    2
     4    17    10    1
     5    10    11   ar
     6    11    12   ar
     7    12    13   ar
     8    13     1    1
     9     1     2   ar
    10     2     3   ar
    11     3     4   ar
    12     4     5   ar
    13     5     6   ar
    14     6     7   ar
    15     7    20    1
    16    20    21   ar
    17    21    22   ar
    18    22    23   ar
    19    23    24   ar
    20    24    26    1
    21    26    27    2
    22    26    28    2
    23    26    29    1
    24    29    30    1
    25    30    31    1
    26    24    25   ar
    27     7     8   ar
    28     8     9   ar
    29    13    14   ar
    30    14    15   ar
    31    15    10   ar
    32     9     1   ar
    33     9     4   ar
    34    25    20   ar
    35    31    29    1
@<TRIPOS>MOLECULE
*****
 31 35 0 0 0
SMALL
GASTEIGER

@<TRIPOS>ATOM
      1 C         142.0698  139.6279  159.7714 C.ar    1  UNL1        0.0386
      2 C         143.4454  139.4982  159.1877 C.ar    1  UNL1        0.1220
      3 N         144.3918  139.1617  160.3017 N.ar    1  UNL1       -0.1635
      4 N         143.6011  139.0835  161.5740 N.ar    1  UNL1       -0.2281
      5 C         144.0024  138.7871  162.9885 C.ar    1  UNL1        0.1004
      6 C         142.9686  138.7788  164.0753 C.ar    1  UNL1        0.0207
      7 C         141.5335  139.0669  163.7476 C.ar    1  UNL1        0.0031
      8 C         141.1322  139.3633  162.3330 C.ar    1  UNL1        0.0192
      9 C         142.1659  139.3716  161.2462 C.ar    1  UNL1        0.0844
     10 C         138.3136  140.6129  157.4974 C.ar    1  UNL1        0.1057
     11 C         138.6617  141.3797  158.7387 C.ar    1  UNL1        0.0183
     12 C         139.9138  141.0513  159.4966 C.ar    1  UNL1        0.0014
     13 C         140.8177  139.9562  159.0134 C.ar    1  UNL1        0.0031
     14 C         140.4695  139.1894  157.7721 C.ar    1  UNL1        0.0014
     15 C         139.2175  139.5177  157.0141 C.ar    1  UNL1        0.0183
     16 C         135.8094  141.2695  155.9815 C.3     1  UNL1        0.1816
     17 S         137.0615  140.9412  156.7394 S.O2    1  UNL1        0.0104
     18 O         136.2388  140.3239  157.8312 O.2     1  UNL1       -0.1686
     19 O         137.8843  141.5586  155.6476 O.2     1  UNL1       -0.1686
     20 C         140.4997  139.0586  164.8345 C.ar    1  UNL1        0.0014
     21 C         139.2520  138.2411  164.6766 C.ar    1  UNL1        0.0001
     22 C         138.2182  138.2328  165.7635 C.ar    1  UNL1        0.0013
     23 C         138.4322  139.0420  167.0082 C.ar    1  UNL1        0.0183
     24 C         139.6799  139.8596  167.1661 C.ar    1  UNL1        0.1056
     25 C         140.7136  139.8678  166.0792 C.ar    1  UNL1        0.0183
     26 S         139.8939  140.6688  168.4108 S.O2    1  UNL1        0.0070
     27 O         140.8624  141.5459  167.6741 O.2     1  UNL1       -0.1687
     28 O         138.9253  139.7917  169.1475 O.2     1  UNL1       -0.1687
     29 C         140.1078  141.4780  169.6555 C.3     1  UNL1        0.1339
     30 C         140.8150  141.6907  170.9611 C.3     1  UNL1        0.0257
     31 C         139.7711  142.6670  170.5058 C.3     1  UNL1        0.0257
@<TRIPOS>BOND
     1    16    17    1
     2    17    18    2
     3    17    19    2
     4    17    10    1
     5    10    11   ar
     6    11    12   ar
     7    12    13   ar
     8    13     1    1
     9     1     2   ar
    10     2     3   ar
    11     3     4   ar
    12     4     5   ar
    13     5     6   ar
    14     6     7   ar
    15     7    20    1
    16    20    21   ar
    17    21    22   ar
    18    22    23   ar
    19    23    24   ar
    20    24    26    1
    21    26    27    2
    22    26    28    2
    23    26    29    1
    24    29    30    1
    25    30    31    1
    26    24    25   ar
    27     7     8   ar
    28     8     9   ar
    29    13    14   ar
    30    14    15   ar
    31    15    10   ar
    32     9     1   ar
    33     9     4   ar
    34    25    20   ar
    35    31    29    1
@<TRIPOS>MOLECULE
*****
 31 35 0 0 0
SMALL
GASTEIGER

@<TRIPOS>ATOM
      1 C         140.4815  137.7209  155.6270 C.ar    1  UNL1        0.0386
      2 C         140.1637  138.2674  154.2667 C.ar    1  UNL1        0.1220
      3 N         139.2603  139.4518  154.4425 N.ar    1  UNL1       -0.1635
      4 N         139.0197  139.6374  155.9115 N.ar    1  UNL1       -0.2281
      5 C         138.2109  140.6422  156.6770 C.ar    1  UNL1        0.1004
      6 C         138.1569  140.5772  158.1746 C.ar    1  UNL1        0.0207
      7 C         138.9117  139.5075  158.9066 C.ar    1  UNL1        0.0031
      8 C         139.7205  138.5026  158.1411 C.ar    1  UNL1        0.0192
      9 C         139.7745  138.5676  156.6435 C.ar    1  UNL1        0.0844
     10 C         143.0967  134.1654  156.5042 C.ar    1  UNL1        0.1057
     11 C         143.3498  135.4717  157.1967 C.ar    1  UNL1        0.0183
     12 C         142.4780  136.6568  156.9043 C.ar    1  UNL1        0.0014
     13 C         141.3532  136.5358  155.9194 C.ar    1  UNL1        0.0031
     14 C         141.1002  135.2294  155.2268 C.ar    1  UNL1        0.0014
     15 C         141.9719  134.0443  155.5193 C.ar    1  UNL1        0.0183
     16 C         144.8402  131.7953  157.0892 C.3     1  UNL1        0.1816
     17 S         143.9685  132.9803  156.7967 S.O2    1  UNL1        0.0104
     18 O         144.2482  133.5241  158.1664 O.2     1  UNL1       -0.1686
     19 O         143.6888  132.4366  155.4270 O.2     1  UNL1       -0.1686
     20 C         138.8577  139.4425  160.4043 C.ar    1  UNL1        0.0014
     21 C         138.9039  138.1142  161.0996 C.ar    1  UNL1        0.0001
     22 C         138.8498  138.0493  162.5973 C.ar    1  UNL1        0.0013
     23 C         138.7496  139.3127  163.3996 C.ar    1  UNL1        0.0183
     24 C         138.7034  140.6411  162.7042 C.ar    1  UNL1        0.1056
     25 C         138.7575  140.7060  161.2066 C.ar    1  UNL1        0.0183
     26 S         138.6032  141.9045  163.5065 S.O2    1  UNL1        0.0070
     27 O         137.1666  142.0487  163.1000 O.2     1  UNL1       -0.1687
     28 O         140.0398  141.7603  163.9131 O.2     1  UNL1       -0.1687
     29 C         138.5030  143.1679  164.3089 C.3     1  UNL1        0.1339
     30 C         137.7254  144.3776  164.7354 C.3     1  UNL1        0.0257
     31 C         139.1069  144.1465  165.2719 C.3     1  UNL1        0.0257
@<TRIPOS>BOND
     1    16    17    1
     2    17    18    2
     3    17    19    2
     4    17    10    1
     5    10    11   ar
     6    11    12   ar
     7    12    13   ar
     8    13     1    1
     9     1     2   ar
    10     2     3   ar
    11     3     4   ar
    12     4     5   ar
    13     5     6   ar
    14     6     7   ar
    15     7    20    1
    16    20    21   ar
    17    21    22   ar
    18    22    23   ar
    19    23    24   ar
    20    24    26    1
    21    26    27    2
    22    26    28    2
    23    26    29    1
    24    29    30    1
    25    30    31    1
    26    24    25   ar
    27     7     8   ar
    28     8     9   ar
    29    13    14   ar
    30    14    15   ar
    31    15    10   ar
    32     9     1   ar
    33     9     4   ar
    34    25    20   ar
    35    31    29    1
@<TRIPOS>MOLECULE
*****
 31 35 0 0 0
SMALL
GASTEIGER

@<TRIPOS>ATOM
      1 C         140.0587  143.1501  165.0498 C.ar    1  UNL1        0.0386
      2 C         139.1707  144.3283  165.3204 C.ar    1  UNL1        0.1220
      3 N         138.8630  144.9877  164.0087 N.ar    1  UNL1       -0.1635
      4 N         139.5608  144.2169  162.9275 N.ar    1  UNL1       -0.2281
      5 C         139.6187  144.4025  161.4402 C.ar    1  UNL1        0.1004
      6 C         140.4156  143.4524  160.5963 C.ar    1  UNL1        0.0207
      7 C         141.1546  142.3167  161.2398 C.ar    1  UNL1        0.0031
      8 C         141.0967  142.1311  162.7271 C.ar    1  UNL1        0.0192
      9 C         140.2998  143.0812  163.5709 C.ar    1  UNL1        0.0844
     10 C         141.7097  140.3188  168.1334 C.ar    1  UNL1        0.1057
     11 C         142.5337  141.4813  167.6651 C.ar    1  UNL1        0.0183
     12 C         141.9834  142.4251  166.6372 C.ar    1  UNL1        0.0014
     13 C         140.6091  142.2063  166.0777 C.ar    1  UNL1        0.0031
     14 C         139.7849  141.0437  166.5461 C.ar    1  UNL1        0.0014
     15 C         140.3352  140.1000  167.5739 C.ar    1  UNL1        0.0183
     16 C         142.8102  138.4314  170.1892 C.3     1  UNL1        0.1816
     17 S         142.2600  139.3750  169.1613 S.O2    1  UNL1        0.0104
     18 O         141.3236  139.9446  170.1855 O.2     1  UNL1       -0.1686
     19 O         143.1963  138.8055  168.1371 O.2     1  UNL1       -0.1686
     20 C         141.9516  141.3666  160.3958 C.ar    1  UNL1        0.0014
     21 C         141.6994  139.8907  160.4862 C.ar    1  UNL1        0.0001
     22 C         142.4963  138.9406  159.6422 C.ar    1  UNL1        0.0013
     23 C         143.5455  139.4664  158.7079 C.ar    1  UNL1        0.0183
     24 C         143.7976  140.9423  158.6176 C.ar    1  UNL1        0.1056
     25 C         143.0007  141.8924  159.4615 C.ar    1  UNL1        0.0183
     26 S         144.8467  141.4681  157.6833 S.O2    1  UNL1        0.0070
     27 O         145.0180  140.0955  157.1032 O.2     1  UNL1       -0.1687
     28 O         144.6754  142.8408  158.2635 O.2     1  UNL1       -0.1687
     29 C         145.8959  141.9939  156.7490 C.3     1  UNL1        0.1339
     30 C         147.2862  142.5044  156.5121 C.3     1  UNL1        0.0257
     31 C         146.3226  142.3942  155.3679 C.3     1  UNL1        0.0257
@<TRIPOS>BOND
     1    16    17    1
     2    17    18    2
     3    17    19    2
     4    17    10    1
     5    10    11   ar
     6    11    12   ar
     7    12    13   ar
     8    13     1    1
     9     1     2   ar
    10     2     3   ar
    11     3     4   ar
    12     4     5   ar
    13     5     6   ar
    14     6     7   ar
    15     7    20    1
    16    20    21   ar
    17    21    22   ar
    18    22    23   ar
    19    23    24   ar
    20    24    26    1
    21    26    27    2
    22    26    28    2
    23    26    29    1
    24    29    30    1
    25    30    31    1
    26    24    25   ar
    27     7     8   ar
    28     8     9   ar
    29    13    14   ar
    30    14    15   ar
    31    15    10   ar
    32     9     1   ar
    33     9     4   ar
    34    25    20   ar
    35    31    29    1
@<TRIPOS>MOLECULE
*****
 31 35 0 0 0
SMALL
GASTEIGER

@<TRIPOS>ATOM
      1 C         134.8885  141.1663  155.0539 C.ar    1  UNL1        0.0386
      2 C         135.0608  141.7258  153.6729 C.ar    1  UNL1        0.1220
      3 N         136.4568  142.2630  153.5613 N.ar    1  UNL1       -0.1635
      4 N         137.1473  142.0356  154.8734 N.ar    1  UNL1       -0.2281
      5 C         138.5334  142.3582  155.3473 C.ar    1  UNL1        0.1004
      6 C         138.9502  142.0029  156.7438 C.ar    1  UNL1        0.0207
      7 C         137.9809  141.3251  157.6662 C.ar    1  UNL1        0.0031
      8 C         136.5948  141.0025  157.1923 C.ar    1  UNL1        0.0192
      9 C         136.1780  141.3578  155.7959 C.ar    1  UNL1        0.0844
     10 C         131.1579  139.2497  156.6849 C.ar    1  UNL1        0.1057
     11 C         131.0992  140.6322  156.1058 C.ar    1  UNL1        0.0183
     12 C         132.3428  141.2710  155.5621 C.ar    1  UNL1        0.0014
     13 C         133.6450  140.5275  155.5976 C.ar    1  UNL1        0.0031
     14 C         133.7037  139.1450  156.1768 C.ar    1  UNL1        0.0014
     15 C         132.4602  138.5061  156.7204 C.ar    1  UNL1        0.0183
     16 C         128.6709  137.9722  157.7724 C.3     1  UNL1        0.1816
     17 S         129.9144  138.6109  157.2286 S.O2    1  UNL1        0.0104
     18 O         129.9087  139.5897  158.3653 O.2     1  UNL1       -0.1686
     19 O         129.9202  137.6322  156.0919 O.2     1  UNL1       -0.1686
     20 C         138.3977  140.9698  159.0627 C.ar    1  UNL1        0.0014
     21 C         138.9059  139.5915  159.3660 C.ar    1  UNL1        0.0001
     22 C         139.3228  139.2363  160.7625 C.ar    1  UNL1        0.0013
     23 C         139.2314  140.2593  161.8556 C.ar    1  UNL1        0.0183
     24 C         138.7231  141.6377  161.5523 C.ar    1  UNL1        0.1056
     25 C         138.3063  141.9929  160.1559 C.ar    1  UNL1        0.0183
     26 S         138.6317  142.6607  162.6455 S.O2    1  UNL1        0.0070
     27 O         137.7966  143.5349  161.7575 O.2     1  UNL1       -0.1687
     28 O         139.4667  141.7866  163.5334 O.2     1  UNL1       -0.1687
     29 C         138.5402  143.6838  163.7386 C.3     1  UNL1        0.1339
     30 C         137.7442  144.3822  164.8008 C.3     1  UNL1        0.0257
     31 C         139.1780  144.7573  164.5697 C.3     1  UNL1        0.0257
@<TRIPOS>BOND
     1    16    17    1
     2    17    18    2
     3    17    19    2
     4    17    10    1
     5    10    11   ar
     6    11    12   ar
     7    12    13   ar
     8    13     1    1
     9     1     2   ar
    10     2     3   ar
    11     3     4   ar
    12     4     5   ar
    13     5     6   ar
    14     6     7   ar
    15     7    20    1
    16    20    21   ar
    17    21    22   ar
    18    22    23   ar
    19    23    24   ar
    20    24    26    1
    21    26    27    2
    22    26    28    2
    23    26    29    1
    24    29    30    1
    25    30    31    1
    26    24    25   ar
    27     7     8   ar
    28     8     9   ar
    29    13    14   ar
    30    14    15   ar
    31    15    10   ar
    32     9     1   ar
    33     9     4   ar
    34    25    20   ar
    35    31    29    1
@<TRIPOS>MOLECULE
*****
 31 35 0 0 0
SMALL
GASTEIGER

@<TRIPOS>ATOM
      1 C         138.8451  142.7294  164.0521 C.ar    1  UNL1        0.0386
      2 C         137.9198  143.9059  163.9547 C.ar    1  UNL1        0.1220
      3 N         137.6974  144.2015  162.5011 N.ar    1  UNL1       -0.1635
      4 N         138.4853  143.2077  161.7001 N.ar    1  UNL1       -0.2281
      5 C         138.6485  143.0137  160.2217 C.ar    1  UNL1        0.1004
      6 C         139.5210  141.9099  159.7019 C.ar    1  UNL1        0.0207
      7 C         140.2303  141.0000  160.6606 C.ar    1  UNL1        0.0031
      8 C         140.0671  141.1940  162.1390 C.ar    1  UNL1        0.0192
      9 C         139.1946  142.2978  162.6587 C.ar    1  UNL1        0.0844
     10 C         140.3147  140.8280  167.8568 C.ar    1  UNL1        0.1057
     11 C         139.4403  140.0500  166.9186 C.ar    1  UNL1        0.0183
     12 C         138.9505  140.6838  165.6504 C.ar    1  UNL1        0.0014
     13 C         139.3349  142.0956  165.3204 C.ar    1  UNL1        0.0031
     14 C         140.2093  142.8736  166.2586 C.ar    1  UNL1        0.0014
     15 C         140.6991  142.2398  167.5268 C.ar    1  UNL1        0.0183
     16 C         141.2944  139.5605  170.3932 C.3     1  UNL1        0.1816
     17 S         140.8045  140.1942  169.1251 S.O2    1  UNL1        0.0104
     18 O         142.2058  140.6144  168.7937 O.2     1  UNL1       -0.1686
     19 O         139.4031  139.7741  169.4564 O.2     1  UNL1       -0.1686
     20 C         141.1028  139.8961  160.1408 C.ar    1  UNL1        0.0014
     21 C         142.3424  139.5044  160.8890 C.ar    1  UNL1        0.0001
     22 C         143.2149  138.4004  160.3692 C.ar    1  UNL1        0.0013
     23 C         142.8478  137.6883  159.1011 C.ar    1  UNL1        0.0183
     24 C         141.6082  138.0801  158.3528 C.ar    1  UNL1        0.1056
     25 C         140.7357  139.1840  158.8726 C.ar    1  UNL1        0.0183
     26 S         141.2411  137.3680  157.0847 S.O2    1  UNL1        0.0070
     27 O         139.8290  137.8555  157.2197 O.2     1  UNL1       -0.1687
     28 O         142.6532  136.8805  156.9497 O.2     1  UNL1       -0.1687
     29 C         140.8740  136.6559  155.8166 C.3     1  UNL1        0.1339
     30 C         140.1046  136.6077  154.5298 C.3     1  UNL1        0.0257
     31 C         141.0075  135.4707  154.9069 C.3     1  UNL1        0.0257
@<TRIPOS>BOND
     1    16    17    1
     2    17    18    2
     3    17    19    2
     4    17    10    1
     5    10    11   ar
     6    11    12   ar
     7    12    13   ar
     8    13     1    1
     9     1     2   ar
    10     2     3   ar
    11     3     4   ar
    12     4     5   ar
    13     5     6   ar
    14     6     7   ar
    15     7    20    1
    16    20    21   ar
    17    21    22   ar
    18    22    23   ar
    19    23    24   ar
    20    24    26    1
    21    26    27    2
    22    26    28    2
    23    26    29    1
    24    29    30    1
    25    30    31    1
    26    24    25   ar
    27     7     8   ar
    28     8     9   ar
    29    13    14   ar
    30    14    15   ar
    31    15    10   ar
    32     9     1   ar
    33     9     4   ar
    34    25    20   ar
    35    31    29    1
@<TRIPOS>MOLECULE
*****
 31 35 0 0 0
SMALL
GASTEIGER

@<TRIPOS>ATOM
      1 C         142.3582  135.9045  155.8626 C.ar    1  UNL1        0.0386
      2 C         142.0214  136.4227  154.4959 C.ar    1  UNL1        0.1220
      3 N         141.7492  137.8932  154.6119 N.ar    1  UNL1       -0.1635
      4 N         141.9178  138.2838  156.0503 N.ar    1  UNL1       -0.2281
      5 C         141.7772  139.5999  156.7561 C.ar    1  UNL1        0.1004
      6 C         142.0130  139.6868  158.2349 C.ar    1  UNL1        0.0207
      7 C         142.3894  138.4577  159.0079 C.ar    1  UNL1        0.0031
      8 C         142.5300  137.1416  158.3021 C.ar    1  UNL1        0.0192
      9 C         142.2942  137.0547  156.8233 C.ar    1  UNL1        0.0844
     10 C         143.3811  131.6465  156.8989 C.ar    1  UNL1        0.1057
     11 C         144.1850  132.7731  157.4773 C.ar    1  UNL1        0.0183
     12 C         143.8440  134.1924  157.1319 C.ar    1  UNL1        0.0014
     13 C         142.6992  134.4852  156.2081 C.ar    1  UNL1        0.0031
     14 C         141.8953  133.3585  155.6296 C.ar    1  UNL1        0.0014
     15 C         142.2362  131.9392  155.9750 C.ar    1  UNL1        0.0183
     16 C         144.0631  128.8080  157.5898 C.3     1  UNL1        0.1816
     17 S         143.7221  130.2272  157.2443 S.O2    1  UNL1        0.0104
     18 O         144.7835  130.7117  158.1870 O.2     1  UNL1       -0.1686
     19 O         142.6607  129.7427  156.3016 O.2     1  UNL1       -0.1686
     20 C         142.6252  138.5446  160.4867 C.ar    1  UNL1        0.0014
     21 C         144.0106  138.7765  161.0129 C.ar    1  UNL1        0.0001
     22 C         144.2464  138.8635  162.4918 C.ar    1  UNL1        0.0013
     23 C         143.0968  138.7186  163.4443 C.ar    1  UNL1        0.0183
     24 C         141.7114  138.4867  162.9180 C.ar    1  UNL1        0.1056
     25 C         141.4756  138.3997  161.4393 C.ar    1  UNL1        0.0183
     26 S         140.5618  138.3418  163.8706 S.O2    1  UNL1        0.0070
     27 O         139.7693  137.6405  162.8075 O.2     1  UNL1       -0.1687
     28 O         141.3542  139.0431  164.9337 O.2     1  UNL1       -0.1687
     29 C         139.4121  138.1969  164.8232 C.3     1  UNL1        0.1339
     30 C         138.4554  137.3254  165.5815 C.3     1  UNL1        0.0257
     31 C         138.3777  138.8174  165.7147 C.3     1  UNL1        0.0257
@<TRIPOS>BOND
     1    16    17    1
     2    17    18    2
     3    17    19    2
     4    17    10    1
     5    10    11   ar
     6    11    12   ar
     7    12    13   ar
     8    13     1    1
     9     1     2   ar
    10     2     3   ar
    11     3     4   ar
    12     4     5   ar
    13     5     6   ar
    14     6     7   ar
    15     7    20    1
    16    20    21   ar
    17    21    22   ar
    18    22    23   ar
    19    23    24   ar
    20    24    26    1
    21    26    27    2
    22    26    28    2
    23    26    29    1
    24    29    30    1
    25    30    31    1
    26    24    25   ar
    27     7     8   ar
    28     8     9   ar
    29    13    14   ar
    30    14    15   ar
    31    15    10   ar
    32     9     1   ar
    33     9     4   ar
    34    25    20   ar
    35    31    29    1
