@<TRIPOS>MOLECULE
*****
 40 45 0 0 0
SMALL
GASTEIGER

@<TRIPOS>ATOM
      1 C         139.6545  140.2738  168.0890 C.3     1  UNL1        0.0294
      2 C         140.5356  139.9100  169.2472 C.3     1  UNL1        0.0666
      3 S         142.0252  140.0367  169.1251 S.3     1  UNL1       -0.0756
      4 C         143.5833  140.0722  165.5703 C.ar    1  UNL1        0.1669
      5 N         143.8673  138.6625  165.9972 N.ar    1  UNL1       -0.1282
      6 N         143.3182  138.4777  167.3808 N.ar    1  UNL1       -0.1221
      7 C         142.6948  139.7731  167.8090 C.ar    1  UNL1        0.1932
      8 N         142.8587  140.7585  166.6901 N.ar    1  UNL1       -0.2884
      9 C         142.3816  142.1807  166.6907 C.3     1  UNL1        0.1340
     10 C         142.6047  137.8718  159.1320 C.3     1  UNL1        0.0521
     11 C         142.9431  138.5757  160.4127 C.ar    1  UNL1        0.0593
     12 C         142.5683  137.9604  161.7284 C.ar    1  UNL1        0.0147
     13 C         142.9066  138.6644  163.0090 C.ar    1  UNL1        0.0028
     14 C         143.6197  139.9836  162.9740 C.ar    1  UNL1        0.0206
     15 C         143.9581  140.6874  164.2547 C.ar    1  UNL1        0.0374
     16 C         144.6712  142.0066  164.2196 C.ar    1  UNL1        0.0031
     17 C         145.0460  142.6219  162.9039 C.ar    1  UNL1        0.0016
     18 C         144.7077  141.9180  161.6234 C.ar    1  UNL1        0.0191
     19 C         143.9946  140.5988  161.6583 C.ar    1  UNL1        0.0810
     20 N         143.6562  139.8949  160.3776 N.ar    1  UNL1       -0.2497
     21 C         139.1082  139.1996  167.1959 C.3     1  UNL1        0.0730
     22 N         139.1916  139.3489  165.7056 N.3     1  UNL1       -0.2720
     23 C         138.8386  138.1282  164.9086 C.3     1  UNL1        0.0768
     24 C         138.8238  137.9562  163.4184 C.3     1  UNL1        0.0434
     25 C         139.1582  138.9624  162.3576 C.ar    1  UNL1       -0.0216
     26 C         139.0144  138.3783  160.9834 C.ar    1  UNL1        0.0337
     27 C         139.3026  139.2209  159.7764 C.ar    1  UNL1        0.1530
     28 C         139.7345  140.6477  159.9434 C.ar    1  UNL1        0.1021
     29 C         139.8783  141.2318  161.3175 C.ar    1  UNL1        0.0147
     30 C         139.5901  140.3892  162.5246 C.ar    1  UNL1       -0.0232
     31 C         139.7943  141.1620  163.7938 C.3     1  UNL1        0.0434
     32 C         139.6169  140.6990  165.2095 C.3     1  UNL1        0.0768
     33 N         140.0226  141.4903  158.7363 N.pl3   1  UNL1       -0.1875
     34 C         139.8788  140.9061  157.3623 C.3     1  UNL1        0.1628
     35 C         139.4469  139.4794  157.1952 C.3     1  UNL1        0.2287
     36 O         139.1588  138.6369  158.4023 O.3     1  UNL1       -0.4723
     37 S         140.4545  142.9170  158.9034 S.O2    1  UNL1        0.0590
     38 C         140.8863  144.3438  159.0706 C.3     1  UNL1        0.1999
     39 O         141.8901  142.4824  158.9045 O.2     1  UNL1       -0.1542
     40 O         139.0188  143.3517  158.9024 O.2     1  UNL1       -0.1542
@<TRIPOS>BOND
     1    10    11    1
     2    11    12   ar
     3    12    13   ar
     4    13    14   ar
     5    14    15   ar
     6    15     4    1
     7     4     5   ar
     8     5     6   ar
     9     6     7   ar
    10     7     3    1
    11     3     2    1
    12     2     1    1
    13     1    21    1
    14    21    22    1
    15    22    23    1
    16    23    24    1
    17    24    25    1
    18    25    26   ar
    19    26    27   ar
    20    27    28   ar
    21    28    29   ar
    22    29    30   ar
    23    30    31    1
    24    31    32    1
    25    28    33    1
    26    33    37    1
    27    37    38    1
    28    37    39    2
    29    37    40    2
    30    33    34    1
    31    34    35    1
    32    35    36    1
    33     7     8   ar
    34     8     9    1
    35    15    16   ar
    36    16    17   ar
    37    17    18   ar
    38    18    19   ar
    39    19    20   ar
    40    20    11   ar
    41    19    14   ar
    42     8     4   ar
    43    32    22    1
    44    30    25   ar
    45    36    27    1
@<TRIPOS>MOLECULE
*****
 40 45 0 0 0
SMALL
GASTEIGER

@<TRIPOS>ATOM
      1 C         140.6286  145.0217  158.5417 C.3     1  UNL1        0.0294
      2 C         142.0159  144.9113  157.9818 C.3     1  UNL1        0.0666
      3 S         142.7708  143.6203  158.0974 S.3     1  UNL1       -0.0756
      4 C         142.1306  141.1811  161.0480 C.ar    1  UNL1        0.1669
      5 N         143.1772  142.0800  161.6369 N.ar    1  UNL1       -0.1282
      6 N         143.5444  143.1031  160.6032 N.ar    1  UNL1       -0.1221
      7 C         142.7247  142.8366  159.3756 C.ar    1  UNL1        0.1932
      8 N         141.8510  141.6488  159.6505 N.ar    1  UNL1       -0.2884
      9 C         140.8698  141.0361  158.6955 C.3     1  UNL1        0.1340
     10 C         143.8184  137.8381  166.8122 C.3     1  UNL1        0.0521
     11 C         143.2334  138.3833  165.5431 C.ar    1  UNL1        0.0593
     12 C         143.8858  139.5457  164.8552 C.ar    1  UNL1        0.0147
     13 C         143.3007  140.0908  163.5862 C.ar    1  UNL1        0.0028
     14 C         142.0632  139.4736  163.0050 C.ar    1  UNL1        0.0206
     15 C         141.4782  140.0188  161.7359 C.ar    1  UNL1        0.0374
     16 C         140.2407  139.4016  161.1549 C.ar    1  UNL1        0.0031
     17 C         139.5882  138.2392  161.8428 C.ar    1  UNL1        0.0016
     18 C         140.1733  137.6941  163.1118 C.ar    1  UNL1        0.0191
     19 C         141.4108  138.3113  163.6930 C.ar    1  UNL1        0.0810
     20 N         141.9958  137.7661  164.9620 N.ar    1  UNL1       -0.2497
     21 C         140.4150  145.6059  159.9066 C.3     1  UNL1        0.0730
     22 N         140.2031  144.7018  161.0846 N.3     1  UNL1       -0.2720
     23 C         139.1622  143.6361  160.9081 C.3     1  UNL1        0.0768
     24 C         138.7212  142.5883  161.8868 C.3     1  UNL1        0.0434
     25 C         139.2120  142.3475  163.2835 C.ar    1  UNL1       -0.0216
     26 C         138.5018  141.1908  163.9221 C.ar    1  UNL1        0.0337
     27 C         138.8447  140.7815  165.3238 C.ar    1  UNL1        0.1530
     28 C         139.8978  141.5288  166.0871 C.ar    1  UNL1        0.1021
     29 C         140.6079  142.6856  165.4485 C.ar    1  UNL1        0.0147
     30 C         140.2650  143.0948  164.0467 C.ar    1  UNL1       -0.0232
     31 C         141.0874  144.2677  163.6016 C.3     1  UNL1        0.0434
     32 C         141.0597  144.9828  162.2833 C.3     1  UNL1        0.0768
     33 N         140.2407  141.1196  167.4888 N.pl3   1  UNL1       -0.1875
     34 C         139.5305  139.9629  168.1273 C.3     1  UNL1        0.1628
     35 C         138.4774  139.2155  167.3641 C.3     1  UNL1        0.2287
     36 O         138.1346  139.6248  165.9624 O.3     1  UNL1       -0.4723
     37 S         141.2937  141.8670  168.2519 S.O2    1  UNL1        0.0590
     38 C         142.3467  142.6145  169.0151 C.3     1  UNL1        0.1999
     39 O         142.3323  140.8999  167.7661 O.2     1  UNL1       -0.1542
     40 O         140.2551  142.8342  168.7378 O.2     1  UNL1       -0.1542
@<TRIPOS>BOND
     1    10    11    1
     2    11    12   ar
     3    12    13   ar
     4    13    14   ar
     5    14    15   ar
     6    15     4    1
     7     4     5   ar
     8     5     6   ar
     9     6     7   ar
    10     7     3    1
    11     3     2    1
    12     2     1    1
    13     1    21    1
    14    21    22    1
    15    22    23    1
    16    23    24    1
    17    24    25    1
    18    25    26   ar
    19    26    27   ar
    20    27    28   ar
    21    28    29   ar
    22    29    30   ar
    23    30    31    1
    24    31    32    1
    25    28    33    1
    26    33    37    1
    27    37    38    1
    28    37    39    2
    29    37    40    2
    30    33    34    1
    31    34    35    1
    32    35    36    1
    33     7     8   ar
    34     8     9    1
    35    15    16   ar
    36    16    17   ar
    37    17    18   ar
    38    18    19   ar
    39    19    20   ar
    40    20    11   ar
    41    19    14   ar
    42     8     4   ar
    43    32    22    1
    44    30    25   ar
    45    36    27    1
@<TRIPOS>MOLECULE
*****
 40 45 0 0 0
SMALL
GASTEIGER

@<TRIPOS>ATOM
      1 C         143.3474  138.5839  160.2095 C.3     1  UNL1        0.0294
      2 C         142.8351  139.9003  159.7045 C.3     1  UNL1        0.0666
      3 S         142.5391  140.0798  158.2450 S.3     1  UNL1       -0.0756
      4 C         143.1984  137.1689  155.7636 C.ar    1  UNL1        0.1669
      5 N         144.4852  137.9332  155.6624 N.ar    1  UNL1       -0.1282
      6 N         144.3948  139.1166  156.5796 N.ar    1  UNL1       -0.1221
      7 C         143.0522  139.0838  157.2477 C.ar    1  UNL1        0.1932
      8 N         142.3128  137.8801  156.7433 N.ar    1  UNL1       -0.2884
      9 C         140.9305  137.4611  157.1478 C.3     1  UNL1        0.1340
     10 C         144.1717  130.5603  157.3849 C.3     1  UNL1        0.0521
     11 C         143.8431  131.8987  156.7927 C.ar    1  UNL1        0.0593
     12 C         144.1843  133.1537  157.5401 C.ar    1  UNL1        0.0147
     13 C         143.8557  134.4921  156.9479 C.ar    1  UNL1        0.0028
     14 C         143.1858  134.5756  155.6084 C.ar    1  UNL1        0.0206
     15 C         142.8572  135.9140  155.0162 C.ar    1  UNL1        0.0374
     16 C         142.1873  135.9974  153.6767 C.ar    1  UNL1        0.0031
     17 C         141.8461  134.7424  152.9293 C.ar    1  UNL1        0.0016
     18 C         142.1747  133.4040  153.5215 C.ar    1  UNL1        0.0191
     19 C         142.8446  133.3206  154.8610 C.ar    1  UNL1        0.0810
     20 N         143.1732  131.9821  155.4531 N.ar    1  UNL1       -0.2497
     21 C         142.4599  137.7006  161.0352 C.3     1  UNL1        0.0730
     22 N         142.0163  138.1460  162.3972 N.3     1  UNL1       -0.2720
     23 C         140.6124  137.7784  162.7768 C.3     1  UNL1        0.0768
     24 C         139.8806  138.0741  164.0524 C.3     1  UNL1        0.0434
     25 C         140.3720  138.8103  165.2633 C.ar    1  UNL1       -0.0216
     26 C         139.3155  138.8848  166.3256 C.ar    1  UNL1        0.0337
     27 C         139.6035  139.5816  167.6223 C.ar    1  UNL1        0.1530
     28 C         140.9479  140.2040  167.8569 C.ar    1  UNL1        0.1021
     29 C         142.0045  140.1296  166.7946 C.ar    1  UNL1        0.0147
     30 C         141.7165  139.4327  165.4979 C.ar    1  UNL1       -0.0232
     31 C         142.9016  139.4726  164.5793 C.3     1  UNL1        0.0434
     32 C         143.0350  138.8999  163.1994 C.3     1  UNL1        0.0768
     33 N         141.2359  140.9009  169.1535 N.pl3   1  UNL1       -0.1875
     34 C         140.1794  140.9753  170.2157 C.3     1  UNL1        0.1628
     35 C         138.8349  140.3530  169.9812 C.3     1  UNL1        0.2287
     36 O         138.5470  139.6561  168.6845 O.3     1  UNL1       -0.4723
     37 S         142.5804  141.5233  169.3880 S.O2    1  UNL1        0.0590
     38 C         143.9249  142.1458  169.6224 C.3     1  UNL1        0.1999
     39 O         143.0914  140.2183  169.9225 O.2     1  UNL1       -0.1542
     40 O         142.0694  142.8284  168.8534 O.2     1  UNL1       -0.1542
@<TRIPOS>BOND
     1    10    11    1
     2    11    12   ar
     3    12    13   ar
     4    13    14   ar
     5    14    15   ar
     6    15     4    1
     7     4     5   ar
     8     5     6   ar
     9     6     7   ar
    10     7     3    1
    11     3     2    1
    12     2     1    1
    13     1    21    1
    14    21    22    1
    15    22    23    1
    16    23    24    1
    17    24    25    1
    18    25    26   ar
    19    26    27   ar
    20    27    28   ar
    21    28    29   ar
    22    29    30   ar
    23    30    31    1
    24    31    32    1
    25    28    33    1
    26    33    37    1
    27    37    38    1
    28    37    39    2
    29    37    40    2
    30    33    34    1
    31    34    35    1
    32    35    36    1
    33     7     8   ar
    34     8     9    1
    35    15    16   ar
    36    16    17   ar
    37    17    18   ar
    38    18    19   ar
    39    19    20   ar
    40    20    11   ar
    41    19    14   ar
    42     8     4   ar
    43    32    22    1
    44    30    25   ar
    45    36    27    1
@<TRIPOS>MOLECULE
*****
 40 45 0 0 0
SMALL
GASTEIGER

@<TRIPOS>ATOM
      1 C         142.2799  137.8175  160.1858 C.3     1  UNL1        0.0294
      2 C         142.7769  138.1469  158.8093 C.3     1  UNL1        0.0666
      3 S         141.9402  138.9875  157.8910 S.3     1  UNL1       -0.0756
      4 C         140.2254  142.0287  159.5870 C.ar    1  UNL1        0.1669
      5 N         139.0356  141.2786  159.0654 N.ar    1  UNL1       -0.1282
      6 N         139.5332  140.0482  158.3667 N.ar    1  UNL1       -0.1221
      7 C         141.0305  140.0377  158.4563 C.ar    1  UNL1        0.1932
      8 N         141.4582  141.2616  159.2105 N.ar    1  UNL1       -0.2884
      9 C         142.8709  141.6504  159.5318 C.3     1  UNL1        0.1340
     10 C         140.0027  143.2512  166.3476 C.3     1  UNL1        0.0521
     11 C         140.0492  143.2682  164.8484 C.ar    1  UNL1        0.0593
     12 C         140.0859  141.9777  164.0846 C.ar    1  UNL1        0.0147
     13 C         140.1324  141.9947  162.5854 C.ar    1  UNL1        0.0028
     14 C         140.1422  143.3021  161.8500 C.ar    1  UNL1        0.0206
     15 C         140.1887  143.3190  160.3508 C.ar    1  UNL1        0.0374
     16 C         140.1985  144.6264  159.6156 C.ar    1  UNL1        0.0031
     17 C         140.1619  145.9168  160.3794 C.ar    1  UNL1        0.0016
     18 C         140.1154  145.8999  161.8785 C.ar    1  UNL1        0.0191
     19 C         140.1055  144.5925  162.6139 C.ar    1  UNL1        0.0810
     20 N         140.0590  144.5756  164.1131 N.ar    1  UNL1       -0.2497
     21 C         143.2078  137.9116  161.3606 C.3     1  UNL1        0.0730
     22 N         142.6826  138.3400  162.6987 N.3     1  UNL1       -0.2720
     23 C         141.2655  137.9490  162.9972 C.3     1  UNL1        0.0768
     24 C         140.4597  138.2242  164.2322 C.3     1  UNL1        0.0434
     25 C         140.8719  138.9583  165.4735 C.ar    1  UNL1       -0.0216
     26 C         139.7571  139.0091  166.4758 C.ar    1  UNL1        0.0337
     27 C         139.9621  139.7003  167.7912 C.ar    1  UNL1        0.1530
     28 C         141.2819  140.3406  168.1044 C.ar    1  UNL1        0.1021
     29 C         142.3968  140.2897  167.1020 C.ar    1  UNL1        0.0147
     30 C         142.1918  139.5986  165.7866 C.ar    1  UNL1       -0.0232
     31 C         143.4253  139.6629  164.9357 C.3     1  UNL1        0.0434
     32 C         143.6437  139.1027  163.5614 C.3     1  UNL1        0.0768
     33 N         141.4870  141.0317  169.4198 N.pl3   1  UNL1       -0.1875
     34 C         140.3722  141.0825  170.4220 C.3     1  UNL1        0.1628
     35 C         139.0523  140.4423  170.1089 C.3     1  UNL1        0.2287
     36 O         138.8473  139.7511  168.7935 O.3     1  UNL1       -0.4723
     37 S         142.8068  141.6720  169.7328 S.O2    1  UNL1        0.0590
     38 C         144.1267  142.3124  170.0458 C.3     1  UNL1        0.1999
     39 O         143.3231  140.3590  170.2421 O.2     1  UNL1       -0.1542
     40 O         142.2906  142.9851  169.2234 O.2     1  UNL1       -0.1542
@<TRIPOS>BOND
     1    10    11    1
     2    11    12   ar
     3    12    13   ar
     4    13    14   ar
     5    14    15   ar
     6    15     4    1
     7     4     5   ar
     8     5     6   ar
     9     6     7   ar
    10     7     3    1
    11     3     2    1
    12     2     1    1
    13     1    21    1
    14    21    22    1
    15    22    23    1
    16    23    24    1
    17    24    25    1
    18    25    26   ar
    19    26    27   ar
    20    27    28   ar
    21    28    29   ar
    22    29    30   ar
    23    30    31    1
    24    31    32    1
    25    28    33    1
    26    33    37    1
    27    37    38    1
    28    37    39    2
    29    37    40    2
    30    33    34    1
    31    34    35    1
    32    35    36    1
    33     7     8   ar
    34     8     9    1
    35    15    16   ar
    36    16    17   ar
    37    17    18   ar
    38    18    19   ar
    39    19    20   ar
    40    20    11   ar
    41    19    14   ar
    42     8     4   ar
    43    32    22    1
    44    30    25   ar
    45    36    27    1
@<TRIPOS>MOLECULE
*****
 40 45 0 0 0
SMALL
GASTEIGER

@<TRIPOS>ATOM
      1 C         142.4120  141.0173  170.7248 C.3     1  UNL1        0.0294
      2 C         141.0340  140.8939  171.3046 C.3     1  UNL1        0.0666
      3 S         139.9121  141.7241  170.7552 S.3     1  UNL1       -0.0756
      4 C         139.8077  142.0839  166.8918 C.ar    1  UNL1        0.1669
      5 N         140.0848  143.4984  167.3073 N.ar    1  UNL1       -0.1282
      6 N         140.1576  143.5357  168.8051 N.ar    1  UNL1       -0.1221
      7 C         139.9255  142.1443  169.3153 C.ar    1  UNL1        0.1932
      8 N         139.7093  141.2471  168.1329 N.ar    1  UNL1       -0.2884
      9 C         139.4416  139.7720  168.1827 C.3     1  UNL1        0.1340
     10 C         140.6267  145.3219  160.8840 C.3     1  UNL1        0.0521
     11 C         140.3840  144.3896  162.0337 C.ar    1  UNL1        0.0593
     12 C         140.5359  144.8810  163.4428 C.ar    1  UNL1        0.0147
     13 C         140.2932  143.9486  164.5924 C.ar    1  UNL1        0.0028
     14 C         139.8985  142.5249  164.3331 C.ar    1  UNL1        0.0206
     15 C         139.6558  141.5925  165.4829 C.ar    1  UNL1        0.0374
     16 C         139.2611  140.1688  165.2234 C.ar    1  UNL1        0.0031
     17 C         139.1092  139.6775  163.8143 C.ar    1  UNL1        0.0016
     18 C         139.3519  140.6097  162.6647 C.ar    1  UNL1        0.0191
     19 C         139.7466  142.0335  162.9240 C.ar    1  UNL1        0.0810
     20 N         139.9893  142.9658  161.7743 N.ar    1  UNL1       -0.2497
     21 C         142.9140  139.9861  169.7581 C.3     1  UNL1        0.0730
     22 N         143.0157  140.3136  168.2978 N.3     1  UNL1       -0.2720
     23 C         143.2750  141.7544  167.9705 C.3     1  UNL1        0.0768
     24 C         143.4273  142.3945  166.6224 C.3     1  UNL1        0.0434
     25 C         143.3579  141.7519  165.2689 C.ar    1  UNL1       -0.0216
     26 C         143.5654  142.7563  164.1742 C.ar    1  UNL1        0.0337
     27 C         143.5341  142.3193  162.7396 C.ar    1  UNL1        0.1530
     28 C         143.2953  140.8780  162.3996 C.ar    1  UNL1        0.1021
     29 C         143.0878  139.8736  163.4943 C.ar    1  UNL1        0.0147
     30 C         143.1191  140.3106  164.9289 C.ar    1  UNL1       -0.0232
     31 C         142.8907  139.1558  165.8586 C.3     1  UNL1        0.0434
     32 C         142.8447  139.1573  167.3579 C.3     1  UNL1        0.0768
     33 N         143.2640  140.4410  160.9650 N.pl3   1  UNL1       -0.1875
     34 C         143.4715  141.4453  159.8705 C.3     1  UNL1        0.1628
     35 C         143.7103  142.8867  160.2104 C.3     1  UNL1        0.2287
     36 O         143.7416  143.3236  161.6450 O.3     1  UNL1       -0.4723
     37 S         143.0252  138.9997  160.6252 S.O2    1  UNL1        0.0590
     38 C         142.7863  137.5583  160.2853 C.3     1  UNL1        0.1999
     39 O         144.5054  138.7567  160.6151 O.2     1  UNL1       -0.1542
     40 O         141.5450  139.2426  160.6352 O.2     1  UNL1       -0.1542
@<TRIPOS>BOND
     1    10    11    1
     2    11    12   ar
     3    12    13   ar
     4    13    14   ar
     5    14    15   ar
     6    15     4    1
     7     4     5   ar
     8     5     6   ar
     9     6     7   ar
    10     7     3    1
    11     3     2    1
    12     2     1    1
    13     1    21    1
    14    21    22    1
    15    22    23    1
    16    23    24    1
    17    24    25    1
    18    25    26   ar
    19    26    27   ar
    20    27    28   ar
    21    28    29   ar
    22    29    30   ar
    23    30    31    1
    24    31    32    1
    25    28    33    1
    26    33    37    1
    27    37    38    1
    28    37    39    2
    29    37    40    2
    30    33    34    1
    31    34    35    1
    32    35    36    1
    33     7     8   ar
    34     8     9    1
    35    15    16   ar
    36    16    17   ar
    37    17    18   ar
    38    18    19   ar
    39    19    20   ar
    40    20    11   ar
    41    19    14   ar
    42     8     4   ar
    43    32    22    1
    44    30    25   ar
    45    36    27    1
@<TRIPOS>MOLECULE
*****
 40 45 0 0 0
SMALL
GASTEIGER

@<TRIPOS>ATOM
      1 C         144.6092  142.4955  156.9771 C.3     1  UNL1        0.0294
      2 C         143.6205  142.8652  155.9113 C.3     1  UNL1        0.0666
      3 S         142.6019  143.9350  156.1717 S.3     1  UNL1       -0.0756
      4 C         140.5285  143.4714  159.4201 C.ar    1  UNL1        0.1669
      5 N         141.2027  144.7837  159.6913 N.ar    1  UNL1       -0.1282
      6 N         142.0614  145.1170  158.5075 N.ar    1  UNL1       -0.1221
      7 C         141.9180  144.0108  157.5046 C.ar    1  UNL1        0.1932
      8 N         140.9706  142.9938  158.0686 N.ar    1  UNL1       -0.2884
      9 C         140.5408  141.7223  157.3988 C.3     1  UNL1        0.1340
     10 C         138.4180  145.0147  165.7773 C.3     1  UNL1        0.0521
     11 C         138.7083  144.4514  164.4177 C.ar    1  UNL1        0.0593
     12 C         139.6578  145.1614  163.4988 C.ar    1  UNL1        0.0147
     13 C         139.9481  144.5980  162.1392 C.ar    1  UNL1        0.0028
     14 C         139.2888  143.3248  161.6985 C.ar    1  UNL1        0.0206
     15 C         139.5791  142.7615  160.3389 C.ar    1  UNL1        0.0374
     16 C         138.9198  141.4882  159.8984 C.ar    1  UNL1        0.0031
     17 C         137.9702  140.7783  160.8173 C.ar    1  UNL1        0.0016
     18 C         137.6800  141.3416  162.1768 C.ar    1  UNL1        0.0191
     19 C         138.3393  142.6148  162.6175 C.ar    1  UNL1        0.0810
     20 N         138.0490  143.1781  163.9771 N.ar    1  UNL1       -0.2497
     21 C         144.4155  141.2418  157.7775 C.3     1  UNL1        0.0730
     22 N         143.8075  141.3126  159.1469 N.3     1  UNL1       -0.2720
     23 C         144.1638  142.5250  159.9552 C.3     1  UNL1        0.0768
     24 C         143.7241  142.8859  161.3432 C.3     1  UNL1        0.0434
     25 C         142.8197  142.1237  162.2656 C.ar    1  UNL1       -0.0216
     26 C         142.6372  142.8408  163.5704 C.ar    1  UNL1        0.0337
     27 C         141.7666  142.2465  164.6375 C.ar    1  UNL1        0.1530
     28 C         141.0783  140.9350  164.3999 C.ar    1  UNL1        0.1021
     29 C         141.2608  140.2179  163.0950 C.ar    1  UNL1        0.0147
     30 C         142.1314  140.8122  162.0279 C.ar    1  UNL1       -0.0232
     31 C         142.1777  139.9391  160.8091 C.3     1  UNL1        0.0434
     32 C         142.9236  140.1619  159.5269 C.3     1  UNL1        0.0768
     33 N         140.2077  140.3407  165.4670 N.pl3   1  UNL1       -0.1875
     34 C         140.0253  141.0578  166.7717 C.3     1  UNL1        0.1628
     35 C         140.7135  142.3692  167.0095 C.3     1  UNL1        0.2287
     36 O         141.5841  142.9635  165.9423 O.3     1  UNL1       -0.4723
     37 S         139.5194  139.0293  165.2292 S.O2    1  UNL1        0.0590
     38 C         138.8311  137.7179  164.9914 C.3     1  UNL1        0.1999
     39 O         140.8154  138.3083  165.4539 O.2     1  UNL1       -0.1542
     40 O         138.2233  139.7502  165.0045 O.2     1  UNL1       -0.1542
@<TRIPOS>BOND
     1    10    11    1
     2    11    12   ar
     3    12    13   ar
     4    13    14   ar
     5    14    15   ar
     6    15     4    1
     7     4     5   ar
     8     5     6   ar
     9     6     7   ar
    10     7     3    1
    11     3     2    1
    12     2     1    1
    13     1    21    1
    14    21    22    1
    15    22    23    1
    16    23    24    1
    17    24    25    1
    18    25    26   ar
    19    26    27   ar
    20    27    28   ar
    21    28    29   ar
    22    29    30   ar
    23    30    31    1
    24    31    32    1
    25    28    33    1
    26    33    37    1
    27    37    38    1
    28    37    39    2
    29    37    40    2
    30    33    34    1
    31    34    35    1
    32    35    36    1
    33     7     8   ar
    34     8     9    1
    35    15    16   ar
    36    16    17   ar
    37    17    18   ar
    38    18    19   ar
    39    19    20   ar
    40    20    11   ar
    41    19    14   ar
    42     8     4   ar
    43    32    22    1
    44    30    25   ar
    45    36    27    1
@<TRIPOS>MOLECULE
*****
 40 45 0 0 0
SMALL
GASTEIGER

@<TRIPOS>ATOM
      1 C         142.6872  139.8650  155.6870 C.3     1  UNL1        0.0294
      2 C         141.1951  139.9323  155.5472 C.3     1  UNL1        0.0666
      3 S         140.4359  141.0753  156.1530 S.3     1  UNL1       -0.0756
      4 C         138.6197  141.0006  159.5825 C.ar    1  UNL1        0.1669
      5 N         137.8310  139.9816  158.8145 N.ar    1  UNL1       -0.1282
      6 N         138.4154  139.8856  157.4364 N.ar    1  UNL1       -0.1221
      7 C         139.5652  140.8452  157.3526 C.ar    1  UNL1        0.1932
      8 N         139.6914  141.5343  158.6789 N.ar    1  UNL1       -0.2884
      9 C         140.7106  142.5745  159.0386 C.3     1  UNL1        0.1340
     10 C         138.8515  137.3792  165.4205 C.3     1  UNL1        0.0521
     11 C         138.7334  138.3877  164.3164 C.ar    1  UNL1        0.0593
     12 C         138.9742  137.9749  162.8946 C.ar    1  UNL1        0.0147
     13 C         138.8560  138.9835  161.7906 C.ar    1  UNL1        0.0028
     14 C         138.4970  140.4048  162.1083 C.ar    1  UNL1        0.0206
     15 C         138.3788  141.4133  161.0042 C.ar    1  UNL1        0.0374
     16 C         138.0198  142.8346  161.3221 C.ar    1  UNL1        0.0031
     17 C         137.7790  143.2474  162.7440 C.ar    1  UNL1        0.0016
     18 C         137.8971  142.2389  163.8479 C.ar    1  UNL1        0.0191
     19 C         138.2561  140.8176  163.5302 C.ar    1  UNL1        0.0810
     20 N         138.3743  139.8091  164.6343 N.ar    1  UNL1       -0.2497
     21 C         143.3105  138.8406  156.5880 C.3     1  UNL1        0.0730
     22 N         143.2216  138.9980  158.0771 N.3     1  UNL1       -0.2720
     23 C         142.7713  137.7837  158.8341 C.3     1  UNL1        0.0768
     24 C         142.5830  137.6204  160.3133 C.3     1  UNL1        0.0434
     25 C         142.7984  138.6308  161.4006 C.ar    1  UNL1       -0.0216
     26 C         142.4929  138.0553  162.7518 C.ar    1  UNL1        0.0337
     27 C         142.6444  138.9033  163.9798 C.ar    1  UNL1        0.1530
     28 C         143.1014  140.3267  163.8568 C.ar    1  UNL1        0.1021
     29 C         143.4069  140.9021  162.5056 C.ar    1  UNL1        0.0147
     30 C         143.2554  140.0542  161.2776 C.ar    1  UNL1       -0.0232
     31 C         143.6098  140.8187  160.0366 C.3     1  UNL1        0.0434
     32 C         143.5947  140.3485  158.6123 C.3     1  UNL1        0.0768
     33 N         143.2529  141.1746  165.0848 N.pl3   1  UNL1       -0.1875
     34 C         142.9474  140.5991  166.4359 C.3     1  UNL1        0.1628
     35 C         142.4904  139.1757  166.5590 C.3     1  UNL1        0.2287
     36 O         142.3390  138.3279  165.3309 O.3     1  UNL1       -0.4723
     37 S         143.7098  142.5980  164.9616 S.O2    1  UNL1        0.0590
     38 C         144.1669  144.0213  164.8385 C.3     1  UNL1        0.1999
     39 O         142.3030  143.0689  165.1827 O.2     1  UNL1       -0.1542
     40 O         145.1168  142.1271  164.7406 O.2     1  UNL1       -0.1542
@<TRIPOS>BOND
     1    10    11    1
     2    11    12   ar
     3    12    13   ar
     4    13    14   ar
     5    14    15   ar
     6    15     4    1
     7     4     5   ar
     8     5     6   ar
     9     6     7   ar
    10     7     3    1
    11     3     2    1
    12     2     1    1
    13     1    21    1
    14    21    22    1
    15    22    23    1
    16    23    24    1
    17    24    25    1
    18    25    26   ar
    19    26    27   ar
    20    27    28   ar
    21    28    29   ar
    22    29    30   ar
    23    30    31    1
    24    31    32    1
    25    28    33    1
    26    33    37    1
    27    37    38    1
    28    37    39    2
    29    37    40    2
    30    33    34    1
    31    34    35    1
    32    35    36    1
    33     7     8   ar
    34     8     9    1
    35    15    16   ar
    36    16    17   ar
    37    17    18   ar
    38    18    19   ar
    39    19    20   ar
    40    20    11   ar
    41    19    14   ar
    42     8     4   ar
    43    32    22    1
    44    30    25   ar
    45    36    27    1
@<TRIPOS>MOLECULE
*****
 40 45 0 0 0
SMALL
GASTEIGER

@<TRIPOS>ATOM
      1 C         139.3711  140.2540  168.1710 C.3     1  UNL1        0.0294
      2 C         140.4636  139.8601  169.1205 C.3     1  UNL1        0.0666
      3 S         141.8956  139.9048  168.6763 S.3     1  UNL1       -0.0756
      4 C         142.9582  140.7362  165.0369 C.ar    1  UNL1        0.1669
      5 N         142.5106  139.3120  164.8900 N.ar    1  UNL1       -0.1282
      6 N         142.0581  138.8274  166.2354 N.ar    1  UNL1       -0.1221
      7 C         142.2260  139.9519  167.2138 C.ar    1  UNL1        0.1932
      8 N         142.7823  141.1315  166.4731 N.ar    1  UNL1       -0.2884
      9 C         143.1060  142.4715  167.0647 C.3     1  UNL1        0.1340
     10 C         140.2018  146.2024  161.9107 C.3     1  UNL1        0.0521
     11 C         141.0235  145.0546  162.4181 C.ar    1  UNL1        0.0593
     12 C         140.4930  144.1796  163.5149 C.ar    1  UNL1        0.0147
     13 C         141.3148  143.0318  164.0222 C.ar    1  UNL1        0.0028
     14 C         142.6669  142.7590  163.4328 C.ar    1  UNL1        0.0206
     15 C         143.4886  141.6112  163.9401 C.ar    1  UNL1        0.0374
     16 C         144.8407  141.3386  163.3506 C.ar    1  UNL1        0.0031
     17 C         145.3711  142.2137  162.2538 C.ar    1  UNL1        0.0016
     18 C         144.5494  143.3614  161.7465 C.ar    1  UNL1        0.0191
     19 C         143.1973  143.6341  162.3360 C.ar    1  UNL1        0.0810
     20 N         142.3756  144.7819  161.8286 N.ar    1  UNL1       -0.2497
     21 C         138.7170  139.2159  167.3082 C.3     1  UNL1        0.0730
     22 N         138.8462  139.2911  165.8157 N.3     1  UNL1       -0.2720
     23 C         138.8003  137.9782  165.0915 C.3     1  UNL1        0.0768
     24 C         138.9012  137.7192  163.6174 C.3     1  UNL1        0.0434
     25 C         139.0728  138.7090  162.5036 C.ar    1  UNL1       -0.0216
     26 C         139.1281  138.0274  161.1685 C.ar    1  UNL1        0.0337
     27 C         139.2967  138.8391  159.9185 C.ar    1  UNL1        0.1530
     28 C         139.4099  140.3325  160.0034 C.ar    1  UNL1        0.1021
     29 C         139.3545  141.0140  161.3385 C.ar    1  UNL1        0.0147
     30 C         139.1860  140.2023  162.5886 C.ar    1  UNL1       -0.0232
     31 C         139.1555  141.0746  163.8085 C.3     1  UNL1        0.0434
     32 C         139.0043  140.6690  165.2447 C.3     1  UNL1        0.0768
     33 N         139.5784  141.1442  158.7533 N.pl3   1  UNL1       -0.1875
     34 C         139.6337  140.4626  157.4183 C.3     1  UNL1        0.1628
     35 C         139.5206  138.9693  157.3333 C.3     1  UNL1        0.2287
     36 O         139.3520  138.1576  158.5834 O.3     1  UNL1       -0.4723
     37 S         139.6916  142.6375  158.8384 S.O2    1  UNL1        0.0590
     38 C         139.8046  144.1308  158.9234 C.3     1  UNL1        0.1999
     39 O         141.1845  142.5196  158.9234 O.2     1  UNL1       -0.1542
     40 O         138.1986  142.7554  158.7533 O.2     1  UNL1       -0.1542
@<TRIPOS>BOND
     1    10    11    1
     2    11    12   ar
     3    12    13   ar
     4    13    14   ar
     5    14    15   ar
     6    15     4    1
     7     4     5   ar
     8     5     6   ar
     9     6     7   ar
    10     7     3    1
    11     3     2    1
    12     2     1    1
    13     1    21    1
    14    21    22    1
    15    22    23    1
    16    23    24    1
    17    24    25    1
    18    25    26   ar
    19    26    27   ar
    20    27    28   ar
    21    28    29   ar
    22    29    30   ar
    23    30    31    1
    24    31    32    1
    25    28    33    1
    26    33    37    1
    27    37    38    1
    28    37    39    2
    29    37    40    2
    30    33    34    1
    31    34    35    1
    32    35    36    1
    33     7     8   ar
    34     8     9    1
    35    15    16   ar
    36    16    17   ar
    37    17    18   ar
    38    18    19   ar
    39    19    20   ar
    40    20    11   ar
    41    19    14   ar
    42     8     4   ar
    43    32    22    1
    44    30    25   ar
    45    36    27    1
@<TRIPOS>MOLECULE
*****
 40 45 0 0 0
SMALL
GASTEIGER

@<TRIPOS>ATOM
      1 C         142.4847  140.9595  170.2587 C.3     1  UNL1        0.0294
      2 C         141.2833  140.7227  171.1251 C.3     1  UNL1        0.0666
      3 S         139.9055  140.8267  170.5414 S.3     1  UNL1       -0.0756
      4 C         139.5877  141.4132  166.7177 C.ar    1  UNL1        0.1669
      5 N         139.2546  139.9539  166.8158 N.ar    1  UNL1       -0.1282
      6 N         139.3331  139.5566  168.2601 N.ar    1  UNL1       -0.1221
      7 C         139.7147  140.7704  169.0546 C.ar    1  UNL1        0.1932
      8 N         139.8721  141.9177  168.1013 N.ar    1  UNL1       -0.2884
      9 C         140.2479  143.3230  168.4675 C.3     1  UNL1        0.1340
     10 C         137.7208  139.8448  160.2907 C.3     1  UNL1        0.0521
     11 C         138.1979  140.4399  161.5824 C.ar    1  UNL1        0.0593
     12 C         138.1564  139.6278  162.8429 C.ar    1  UNL1        0.0147
     13 C         138.6335  140.2230  164.1345 C.ar    1  UNL1        0.0028
     14 C         139.1521  141.6301  164.1656 C.ar    1  UNL1        0.0206
     15 C         139.6292  142.2252  165.4573 C.ar    1  UNL1        0.0374
     16 C         140.1478  143.6323  165.4883 C.ar    1  UNL1        0.0031
     17 C         140.1893  144.4444  164.2278 C.ar    1  UNL1        0.0016
     18 C         139.7122  143.8494  162.9363 C.ar    1  UNL1        0.0191
     19 C         139.1936  142.4422  162.9051 C.ar    1  UNL1        0.0810
     20 N         138.7165  141.8471  161.6135 N.ar    1  UNL1       -0.2497
     21 C         142.8844  139.9383  169.2354 C.3     1  UNL1        0.0730
     22 N         142.9563  140.3173  167.7859 N.3     1  UNL1       -0.2720
     23 C         143.2412  141.7630  167.5046 C.3     1  UNL1        0.0768
     24 C         143.3739  142.4490  166.1772 C.3     1  UNL1        0.0434
     25 C         143.2545  141.8588  164.8035 C.ar    1  UNL1       -0.0216
     26 C         143.4575  142.8981  163.7410 C.ar    1  UNL1        0.0337
     27 C         143.3789  142.5155  162.2928 C.ar    1  UNL1        0.1530
     28 C         143.0973  141.0935  161.9069 C.ar    1  UNL1        0.1021
     29 C         142.8943  140.0543  162.9693 C.ar    1  UNL1        0.0147
     30 C         142.9729  140.4369  164.4175 C.ar    1  UNL1       -0.0232
     31 C         142.7411  139.2540  165.3103 C.3     1  UNL1        0.0434
     32 C         142.7337  139.2008  166.8093 C.3     1  UNL1        0.0768
     33 N         143.0187  140.7109  160.4586 N.pl3   1  UNL1       -0.1875
     34 C         143.2217  141.7502  159.3963 C.3     1  UNL1        0.1628
     35 C         143.5033  143.1721  159.7821 C.3     1  UNL1        0.2287
     36 O         143.5819  143.5547  161.2303 O.3     1  UNL1       -0.4723
     37 S         142.7371  139.2890  160.0729 S.O2    1  UNL1        0.0590
     38 C         142.4554  137.8670  159.6871 C.3     1  UNL1        0.1999
     39 O         144.2089  138.9999  160.0635 O.2     1  UNL1       -0.1542
     40 O         141.2652  139.5780  160.0822 O.2     1  UNL1       -0.1542
@<TRIPOS>BOND
     1    10    11    1
     2    11    12   ar
     3    12    13   ar
     4    13    14   ar
     5    14    15   ar
     6    15     4    1
     7     4     5   ar
     8     5     6   ar
     9     6     7   ar
    10     7     3    1
    11     3     2    1
    12     2     1    1
    13     1    21    1
    14    21    22    1
    15    22    23    1
    16    23    24    1
    17    24    25    1
    18    25    26   ar
    19    26    27   ar
    20    27    28   ar
    21    28    29   ar
    22    29    30   ar
    23    30    31    1
    24    31    32    1
    25    28    33    1
    26    33    37    1
    27    37    38    1
    28    37    39    2
    29    37    40    2
    30    33    34    1
    31    34    35    1
    32    35    36    1
    33     7     8   ar
    34     8     9    1
    35    15    16   ar
    36    16    17   ar
    37    17    18   ar
    38    18    19   ar
    39    19    20   ar
    40    20    11   ar
    41    19    14   ar
    42     8     4   ar
    43    32    22    1
    44    30    25   ar
    45    36    27    1
