@<TRIPOS>MOLECULE
*****
 38 42 0 0 0
SMALL
GASTEIGER

@<TRIPOS>ATOM
      1 C         140.1899  144.7216  159.7632 C.ar    1  UNL1        0.0576
      2 C         140.5178  143.2726  159.5560 C.ar    1  UNL1        0.0239
      3 C         140.7302  142.7425  158.1691 C.ar    1  UNL1        0.0874
      4 N         140.6149  143.6615  156.9891 N.ar    1  UNL1       -0.2305
      5 C         140.2870  145.1105  157.1963 C.ar    1  UNL1        0.1319
      6 C         140.0745  145.6406  158.5833 C.ar    1  UNL1        0.0388
      7 C         141.0581  141.2935  157.9619 C.ar    1  UNL1        0.0743
      8 C         140.5996  140.4409  156.8161 C.ar    1  UNL1        0.1251
      9 N         141.1601  139.0632  157.0102 N.ar    1  UNL1       -0.1620
     10 N         141.9650  139.0643  158.2759 N.ar    1  UNL1       -0.2106
     11 C         142.7472  137.9883  158.9689 C.ar    1  UNL1        0.1036
     12 C         143.4664  138.2907  160.2501 C.ar    1  UNL1        0.0404
     13 C         143.4034  139.6691  160.8383 C.ar    1  UNL1        0.0905
     14 N         142.6212  140.7451  160.1453 N.ar    1  UNL1       -0.2259
     15 C         141.9020  140.4427  158.8641 C.ar    1  UNL1        0.1667
     16 C         144.1226  139.9714  162.1194 C.ar    1  UNL1        0.0472
     17 C         144.2596  139.0473  163.2930 C.ar    1  UNL1        0.0085
     18 C         145.0527  139.7557  164.3508 C.ar    1  UNL1        0.0075
     19 C         145.4060  141.1178  163.8310 C.ar    1  UNL1        0.0355
     20 S         144.8311  141.2510  162.4520 S.2     1  UNL1       -0.0849
     21 N         140.1717  146.0294  156.0163 N.pl3   1  UNL1       -0.2882
     22 C         139.4009  147.2813  155.7182 C.3     1  UNL1        0.1231
     23 C         140.0085  147.3291  154.3477 C.3     1  UNL1        0.1499
     24 O         139.8931  148.2480  153.1677 O.3     1  UNL1       -0.3810
     25 C         140.7793  146.0772  154.6458 C.3     1  UNL1        0.1231
     26 H         140.4625  147.9269  152.4510 H       1  UNL1        0.2105
     27 N         140.4671  144.4719  162.3343 N.am    1  UNL1       -0.2995
     28 C         139.9774  145.2516  161.1502 C.2     1  UNL1        0.2460
     29 O         139.2752  146.5615  161.3532 O.2     1  UNL1       -0.2701
     30 H         140.9280  143.6122  162.2011 H       1  UNL1        0.1498
     31 C         140.2546  145.0019  163.7214 C.3     1  UNL1        0.1056
     32 C         139.3839  144.2520  164.6857 C.3     1  UNL1        0.0772
     33 C         138.5480  145.0015  165.6804 C.3     1  UNL1        0.0191
     34 N         139.3491  142.7527  164.6551 N.3     1  UNL1       -0.2724
     35 C         140.9455  140.8560  163.8781 C.3     1  UNL1        0.0188
     36 C         140.6167  141.9696  164.8278 C.3     1  UNL1        0.0721
     37 C         138.0468  142.0367  164.4518 C.3     1  UNL1        0.0721
     38 C         137.4348  141.9671  163.0841 C.3     1  UNL1        0.0188
@<TRIPOS>BOND
     1    35    36    1
     2    36    34    1
     3    34    37    1
     4    37    38    1
     5    34    32    1
     6    32    33    1
     7    32    31    1
     8    31    27    1
     9    27    28   am
    10    28    29    2
    11    28     1    1
    12     1     2   ar
    13     2     3   ar
    14     3     7    1
    15     7     8   ar
    16     8     9   ar
    17     9    10   ar
    18    10    11   ar
    19    11    12   ar
    20    12    13   ar
    21    13    16    1
    22    16    17   ar
    23    17    18   ar
    24    18    19   ar
    25    19    20   ar
    26    13    14   ar
    27    14    15   ar
    28     3     4   ar
    29     4     5   ar
    30     5    21    1
    31    21    22    1
    32    22    23    1
    33    23    24    1
    34    23    25    1
    35     5     6   ar
    36     6     1   ar
    37    15     7   ar
    38    25    21    1
    39    15    10   ar
    40    20    16   ar
    41    27    30    1
    42    24    26    1
@<TRIPOS>MOLECULE
*****
 38 42 0 0 0
SMALL
GASTEIGER

@<TRIPOS>ATOM
      1 C         140.5113  144.5453  160.2917 C.ar    1  UNL1        0.0576
      2 C         141.2302  143.2407  160.1148 C.ar    1  UNL1        0.0239
      3 C         141.6403  142.7901  158.7441 C.ar    1  UNL1        0.0874
      4 N         141.3315  143.6443  157.5503 N.ar    1  UNL1       -0.2305
      5 C         140.6127  144.9489  157.7272 C.ar    1  UNL1        0.1319
      6 C         140.2026  145.3994  159.0979 C.ar    1  UNL1        0.0388
      7 C         142.3591  141.4855  158.5672 C.ar    1  UNL1        0.0743
      8 C         143.3534  141.1657  157.4905 C.ar    1  UNL1        0.1251
      9 N         143.8186  139.7542  157.6938 N.ar    1  UNL1       -0.1620
     10 N         143.1119  139.2018  158.8960 N.ar    1  UNL1       -0.2106
     11 C         143.1732  137.8626  159.5689 C.ar    1  UNL1        0.1036
     12 C         142.3325  137.5935  160.7817 C.ar    1  UNL1        0.0404
     13 C         141.4304  138.6634  161.3215 C.ar    1  UNL1        0.0905
     14 N         141.3691  140.0026  160.6486 N.ar    1  UNL1       -0.2259
     15 C         142.2099  140.2718  159.4358 C.ar    1  UNL1        0.1667
     16 C         140.5897  138.3943  162.5342 C.ar    1  UNL1        0.0472
     17 C         139.1586  138.8018  162.7231 C.ar    1  UNL1        0.0085
     18 C         138.7169  138.3297  164.0766 C.ar    1  UNL1        0.0075
     19 C         139.8751  137.6304  164.7243 C.ar    1  UNL1        0.0355
     20 S         141.0325  137.6703  163.7710 S.2     1  UNL1       -0.0849
     21 N         140.3040  145.8030  156.5334 N.pl3   1  UNL1       -0.2882
     22 C         139.3728  146.9467  156.2597 C.3     1  UNL1        0.1231
     23 C         139.8673  147.0109  154.8450 C.3     1  UNL1        0.1499
     24 O         139.5586  147.8649  153.6512 O.3     1  UNL1       -0.3810
     25 C         140.7985  145.8672  155.1187 C.3     1  UNL1        0.1231
     26 H         140.1067  147.5836  152.9020 H       1  UNL1        0.2105
     27 N         140.7695  144.4160  162.8737 N.am    1  UNL1       -0.2995
     28 C         140.1013  144.9958  161.6624 C.2     1  UNL1        0.2460
     29 O         139.0228  146.0261  161.8219 O.2     1  UNL1       -0.2701
     30 H         141.4773  143.7397  162.7690 H       1  UNL1        0.1498
     31 C         140.3594  144.8665  164.2444 C.3     1  UNL1        0.1056
     32 C         139.1594  144.2568  164.9065 C.3     1  UNL1        0.0772
     33 C         138.3144  145.0805  165.8326 C.3     1  UNL1        0.0191
     34 N         138.8043  142.8236  164.6424 N.3     1  UNL1       -0.2724
     35 C         137.9095  142.2402  162.2742 C.3     1  UNL1        0.0188
     36 C         137.6598  142.4900  163.7320 C.3     1  UNL1        0.0721
     37 C         139.5937  141.7240  165.2888 C.3     1  UNL1        0.0721
     38 C         140.9525  141.3675  164.7631 C.3     1  UNL1        0.0188
@<TRIPOS>BOND
     1    35    36    1
     2    36    34    1
     3    34    37    1
     4    37    38    1
     5    34    32    1
     6    32    33    1
     7    32    31    1
     8    31    27    1
     9    27    28   am
    10    28    29    2
    11    28     1    1
    12     1     2   ar
    13     2     3   ar
    14     3     7    1
    15     7     8   ar
    16     8     9   ar
    17     9    10   ar
    18    10    11   ar
    19    11    12   ar
    20    12    13   ar
    21    13    16    1
    22    16    17   ar
    23    17    18   ar
    24    18    19   ar
    25    19    20   ar
    26    13    14   ar
    27    14    15   ar
    28     3     4   ar
    29     4     5   ar
    30     5    21    1
    31    21    22    1
    32    22    23    1
    33    23    24    1
    34    23    25    1
    35     5     6   ar
    36     6     1   ar
    37    15     7   ar
    38    25    21    1
    39    15    10   ar
    40    20    16   ar
    41    27    30    1
    42    24    26    1
@<TRIPOS>MOLECULE
*****
 38 42 0 0 0
SMALL
GASTEIGER

@<TRIPOS>ATOM
      1 C         142.3092  138.5517  161.0474 C.ar    1  UNL1        0.0576
      2 C         142.2347  140.0116  160.7110 C.ar    1  UNL1        0.0239
      3 C         142.3710  140.4609  159.2865 C.ar    1  UNL1        0.0874
      4 N         142.5820  139.4502  158.1982 N.ar    1  UNL1       -0.2305
      5 C         142.6566  137.9904  158.5346 C.ar    1  UNL1        0.1319
      6 C         142.5202  137.5411  159.9593 C.ar    1  UNL1        0.0388
      7 C         142.2965  141.9208  158.9500 C.ar    1  UNL1        0.0743
      8 C         142.9454  142.5888  157.7742 C.ar    1  UNL1        0.1251
      9 N         142.6098  144.0498  157.8278 N.ar    1  UNL1       -0.1620
     10 N         141.7536  144.2847  159.0367 N.ar    1  UNL1       -0.2106
     11 C         141.1252  145.5268  159.5957 C.ar    1  UNL1        0.1036
     12 C         140.3032  145.4530  160.8482 C.ar    1  UNL1        0.0404
     13 C         140.1095  144.1372  161.5418 C.ar    1  UNL1        0.0905
     14 N         140.7378  142.8951  160.9829 N.ar    1  UNL1       -0.2259
     15 C         141.5599  142.9689  159.7304 C.ar    1  UNL1        0.1667
     16 C         139.2874  144.0634  162.7943 C.ar    1  UNL1        0.0472
     17 C         139.4845  144.8929  164.0285 C.ar    1  UNL1        0.0085
     18 C         138.4429  144.4894  165.0295 C.ar    1  UNL1        0.0075
     19 C         137.6019  143.4105  164.4140 C.ar    1  UNL1        0.0355
     20 S         138.1239  143.1473  163.0326 S.2     1  UNL1       -0.0849
     21 N         142.8676  136.9798  157.4464 N.pl3   1  UNL1       -0.2882
     22 C         143.1146  135.5009  157.4057 C.3     1  UNL1        0.1231
     23 C         143.1660  135.5506  155.9075 C.3     1  UNL1        0.1499
     24 O         143.3770  134.5401  154.8192 O.3     1  UNL1       -0.3810
     25 C         142.9190  137.0296  155.9482 C.3     1  UNL1        0.1231
     26 H         143.3381  134.9813  153.9563 H       1  UNL1        0.2105
     27 N         143.0017  138.7457  163.5440 N.am    1  UNL1       -0.2995
     28 C         142.1728  138.1024  162.4720 C.2     1  UNL1        0.2460
     29 O         141.2075  137.0098  162.8247 O.2     1  UNL1       -0.2701
     30 H         143.6353  139.4628  163.3125 H       1  UNL1        0.1498
     31 C         142.8653  138.2964  164.9686 C.3     1  UNL1        0.1056
     32 C         142.1140  139.1427  165.9533 C.3     1  UNL1        0.0772
     33 C         142.6737  139.3718  167.3260 C.3     1  UNL1        0.0191
     34 N         140.8031  139.7598  165.5652 N.3     1  UNL1       -0.2724
     35 C         141.7487  141.9301  164.4951 C.3     1  UNL1        0.0188
     36 C         140.7110  141.2381  165.3284 C.3     1  UNL1        0.0721
     37 C         139.5843  138.8986  165.4140 C.3     1  UNL1        0.0721
     38 C         138.2385  139.4267  165.8142 C.3     1  UNL1        0.0188
@<TRIPOS>BOND
     1    35    36    1
     2    36    34    1
     3    34    37    1
     4    37    38    1
     5    34    32    1
     6    32    33    1
     7    32    31    1
     8    31    27    1
     9    27    28   am
    10    28    29    2
    11    28     1    1
    12     1     2   ar
    13     2     3   ar
    14     3     7    1
    15     7     8   ar
    16     8     9   ar
    17     9    10   ar
    18    10    11   ar
    19    11    12   ar
    20    12    13   ar
    21    13    16    1
    22    16    17   ar
    23    17    18   ar
    24    18    19   ar
    25    19    20   ar
    26    13    14   ar
    27    14    15   ar
    28     3     4   ar
    29     4     5   ar
    30     5    21    1
    31    21    22    1
    32    22    23    1
    33    23    24    1
    34    23    25    1
    35     5     6   ar
    36     6     1   ar
    37    15     7   ar
    38    25    21    1
    39    15    10   ar
    40    20    16   ar
    41    27    30    1
    42    24    26    1
@<TRIPOS>MOLECULE
*****
 38 42 0 0 0
SMALL
GASTEIGER

@<TRIPOS>ATOM
      1 C         142.9465  138.9316  160.6941 C.ar    1  UNL1        0.0576
      2 C         142.7174  140.3354  160.2180 C.ar    1  UNL1        0.0239
      3 C         142.3564  140.5920  158.7849 C.ar    1  UNL1        0.0874
      4 N         142.2243  139.4445  157.8278 N.ar    1  UNL1       -0.2305
      5 C         142.4534  138.0406  158.3039 C.ar    1  UNL1        0.1319
      6 C         142.8144  137.7841  159.7370 C.ar    1  UNL1        0.0388
      7 C         142.1274  141.9958  158.3088 C.ar    1  UNL1        0.0743
      8 C         142.5671  142.5629  156.9916 C.ar    1  UNL1        0.1251
      9 N         142.1300  143.9966  156.9350 N.ar    1  UNL1       -0.1620
     10 N         141.4200  144.3157  158.2173 N.ar    1  UNL1       -0.2106
     11 C         140.7748  145.5724  158.7215 C.ar    1  UNL1        0.1036
     12 C         140.1281  145.5927  160.0747 C.ar    1  UNL1        0.0404
     13 C         140.1265  144.3561  160.9238 C.ar    1  UNL1        0.0905
     14 N         140.7717  143.0994  160.4196 N.ar    1  UNL1       -0.2259
     15 C         141.4184  143.0791  159.0664 C.ar    1  UNL1        0.1667
     16 C         139.4797  144.3764  162.2771 C.ar    1  UNL1        0.0472
     17 C         138.1206  143.8377  162.6128 C.ar    1  UNL1        0.0085
     18 C         137.8794  144.0672  164.0754 C.ar    1  UNL1        0.0075
     19 C         139.0894  144.7477  164.6435 C.ar    1  UNL1        0.0355
     20 S         140.0784  144.9388  163.5321 S.2     1  UNL1       -0.0849
     21 N         142.3213  136.8932  157.3468 N.pl3   1  UNL1       -0.2882
     22 C         143.1033  135.6420  157.0766 C.3     1  UNL1        0.1231
     23 C         142.1346  135.2705  155.9933 C.3     1  UNL1        0.1499
     24 O         142.0025  134.1231  155.0362 O.3     1  UNL1       -0.3810
     25 C         141.3526  136.5217  156.2635 C.3     1  UNL1        0.1231
     26 H         141.2193  134.2551  154.4794 H       1  UNL1        0.2105
     27 N         144.4301  139.4378  162.7659 N.am    1  UNL1       -0.2995
     28 C         143.3075  138.6751  162.1272 C.2     1  UNL1        0.2460
     29 O         142.5460  137.6559  162.9217 O.2     1  UNL1       -0.2701
     30 H         144.9300  140.1068  162.2445 H       1  UNL1        0.1498
     31 C         144.7912  139.1814  164.1990 C.3     1  UNL1        0.1056
     32 C         143.7780  139.4129  165.2807 C.3     1  UNL1        0.0772
     33 C         143.5726  138.3806  166.3494 C.3     1  UNL1        0.0191
     34 N         142.9703  140.6769  165.2937 N.3     1  UNL1       -0.2724
     35 C         141.0835  141.2194  163.5922 C.3     1  UNL1        0.0188
     36 C         141.5215  140.6450  164.9068 C.3     1  UNL1        0.0721
     37 C         143.6115  141.9726  165.6936 C.3     1  UNL1        0.0721
     38 C         144.2959  142.8203  164.6626 C.3     1  UNL1        0.0188
@<TRIPOS>BOND
     1    35    36    1
     2    36    34    1
     3    34    37    1
     4    37    38    1
     5    34    32    1
     6    32    33    1
     7    32    31    1
     8    31    27    1
     9    27    28   am
    10    28    29    2
    11    28     1    1
    12     1     2   ar
    13     2     3   ar
    14     3     7    1
    15     7     8   ar
    16     8     9   ar
    17     9    10   ar
    18    10    11   ar
    19    11    12   ar
    20    12    13   ar
    21    13    16    1
    22    16    17   ar
    23    17    18   ar
    24    18    19   ar
    25    19    20   ar
    26    13    14   ar
    27    14    15   ar
    28     3     4   ar
    29     4     5   ar
    30     5    21    1
    31    21    22    1
    32    22    23    1
    33    23    24    1
    34    23    25    1
    35     5     6   ar
    36     6     1   ar
    37    15     7   ar
    38    25    21    1
    39    15    10   ar
    40    20    16   ar
    41    27    30    1
    42    24    26    1
@<TRIPOS>MOLECULE
*****
 38 42 0 0 0
SMALL
GASTEIGER

@<TRIPOS>ATOM
      1 C         140.6043  144.9846  159.5482 C.ar    1  UNL1        0.0576
      2 C         141.3055  143.6886  159.2677 C.ar    1  UNL1        0.0239
      3 C         141.6727  143.3239  157.8599 C.ar    1  UNL1        0.0874
      4 N         141.3386  144.2553  156.7324 N.ar    1  UNL1       -0.2305
      5 C         140.6373  145.5512  157.0130 C.ar    1  UNL1        0.1319
      6 C         140.2701  145.9159  158.4209 C.ar    1  UNL1        0.0388
      7 C         142.3740  142.0279  157.5794 C.ar    1  UNL1        0.0743
      8 C         143.4476  141.8102  156.5547 C.ar    1  UNL1        0.1251
      9 N         143.8619  140.3699  156.6163 N.ar    1  UNL1       -0.1620
     10 N         143.0444  139.6975  157.6791 N.ar    1  UNL1       -0.2106
     11 C         143.0186  138.2845  158.1818 C.ar    1  UNL1        0.1036
     12 C         142.0732  137.8962  159.2797 C.ar    1  UNL1        0.0404
     13 C         141.1536  138.9209  159.8749 C.ar    1  UNL1        0.0905
     14 N         141.1794  140.3339  159.3723 N.ar    1  UNL1       -0.2259
     15 C         142.1248  140.7222  158.2743 C.ar    1  UNL1        0.1667
     16 C         140.2081  138.5326  160.9729 C.ar    1  UNL1        0.0472
     17 C         140.5890  137.9268  162.2912 C.ar    1  UNL1        0.0085
     18 C         139.3321  137.7017  163.0783 C.ar    1  UNL1        0.0075
     19 C         138.1744  138.1684  162.2464 C.ar    1  UNL1        0.0355
     20 S         138.7159  138.6818  160.9452 S.2     1  UNL1       -0.0849
     21 N         140.3032  146.4824  155.8855 N.pl3   1  UNL1       -0.2882
     22 C         140.8057  146.6762  154.4855 C.3     1  UNL1        0.1231
     23 C         139.8308  147.7994  154.2909 C.3     1  UNL1        0.1499
     24 O         139.4967  148.7306  153.1635 O.3     1  UNL1       -0.3810
     25 C         139.3283  147.6056  155.6909 C.3     1  UNL1        0.1231
     26 H         138.7877  149.3320  153.4402 H       1  UNL1        0.2105
     27 N         140.8660  144.6222  162.1076 N.am    1  UNL1       -0.2995
     28 C         140.2371  145.3493  160.9561 C.2     1  UNL1        0.2460
     29 O         139.2410  146.4410  161.2127 O.2     1  UNL1       -0.2701
     30 H         141.5198  143.9057  161.9392 H       1  UNL1        0.1498
     31 C         140.4989  144.9869  163.5155 C.3     1  UNL1        0.1056
     32 C         139.3680  144.2804  164.2027 C.3     1  UNL1        0.0772
     33 C         138.7004  144.9104  165.3890 C.3     1  UNL1        0.0191
     34 N         138.9048  142.9439  163.7035 N.3     1  UNL1       -0.2724
     35 C         138.0659  142.4383  161.2972 C.3     1  UNL1        0.0188
     36 C         137.7853  142.8619  162.7085 C.3     1  UNL1        0.0721
     37 C         139.5611  141.6895  164.1992 C.3     1  UNL1        0.0721
     38 C         139.9789  141.5790  165.6356 C.3     1  UNL1        0.0188
@<TRIPOS>BOND
     1    35    36    1
     2    36    34    1
     3    34    37    1
     4    37    38    1
     5    34    32    1
     6    32    33    1
     7    32    31    1
     8    31    27    1
     9    27    28   am
    10    28    29    2
    11    28     1    1
    12     1     2   ar
    13     2     3   ar
    14     3     7    1
    15     7     8   ar
    16     8     9   ar
    17     9    10   ar
    18    10    11   ar
    19    11    12   ar
    20    12    13   ar
    21    13    16    1
    22    16    17   ar
    23    17    18   ar
    24    18    19   ar
    25    19    20   ar
    26    13    14   ar
    27    14    15   ar
    28     3     4   ar
    29     4     5   ar
    30     5    21    1
    31    21    22    1
    32    22    23    1
    33    23    24    1
    34    23    25    1
    35     5     6   ar
    36     6     1   ar
    37    15     7   ar
    38    25    21    1
    39    15    10   ar
    40    20    16   ar
    41    27    30    1
    42    24    26    1
@<TRIPOS>MOLECULE
*****
 38 42 0 0 0
SMALL
GASTEIGER

@<TRIPOS>ATOM
      1 C         138.8814  140.0046  159.1967 C.ar    1  UNL1        0.0576
      2 C         138.1549  140.6252  158.0403 C.ar    1  UNL1        0.0239
      3 C         138.4939  140.2195  156.6367 C.ar    1  UNL1        0.0874
      4 N         139.5595  139.1931  156.3892 N.ar    1  UNL1       -0.2305
      5 C         140.2860  138.5725  157.5456 C.ar    1  UNL1        0.1319
      6 C         139.9469  138.9783  158.9493 C.ar    1  UNL1        0.0388
      7 C         137.7674  140.8402  155.4803 C.ar    1  UNL1        0.0743
      8 C         138.3998  141.5534  154.3221 C.ar    1  UNL1        0.1251
      9 N         137.3043  142.0105  153.4052 N.ar    1  UNL1       -0.1620
     10 N         135.9949  141.5798  153.9967 N.ar    1  UNL1       -0.2106
     11 C         134.5788  141.7529  153.5332 C.ar    1  UNL1        0.1036
     12 C         133.4490  141.2025  154.3521 C.ar    1  UNL1        0.0404
     13 C         133.7352  140.4792  155.6347 C.ar    1  UNL1        0.0905
     14 N         135.1513  140.3062  156.0982 N.ar    1  UNL1       -0.2259
     15 C         136.2811  140.8565  155.2792 C.ar    1  UNL1        0.1667
     16 C         132.6054  139.9289  156.4537 C.ar    1  UNL1        0.0472
     17 C         132.7106  138.8453  157.4855 C.ar    1  UNL1        0.0085
     18 C         131.3423  138.6123  158.0541 C.ar    1  UNL1        0.0075
     19 C         130.3914  139.5519  157.3737 C.ar    1  UNL1        0.0355
     20 S         131.1721  140.3656  156.3846 S.2     1  UNL1       -0.0849
     21 N         141.3515  137.5462  157.2981 N.pl3   1  UNL1       -0.2882
     22 C         142.6600  137.1988  157.9440 C.3     1  UNL1        0.1231
     23 C         142.8585  136.0947  156.9482 C.3     1  UNL1        0.1499
     24 O         143.9240  135.0684  156.7007 O.3     1  UNL1       -0.3810
     25 C         141.5500  136.4421  156.3024 C.3     1  UNL1        0.1231
     26 H         143.6751  134.5210  155.9397 H       1  UNL1        0.2105
     27 N         138.4176  139.3690  161.6727 N.am    1  UNL1       -0.2995
     28 C         138.5423  140.4103  160.6004 C.2     1  UNL1        0.2460
     29 O         138.3280  141.8575  160.9318 O.2     1  UNL1       -0.2701
     30 H         138.5582  138.4192  161.4552 H       1  UNL1        0.1498
     31 C         138.0785  139.7747  163.0764 C.3     1  UNL1        0.1056
     32 C         139.1729  139.9970  164.0780 C.3     1  UNL1        0.0772
     33 C         139.9920  141.2526  164.0278 C.3     1  UNL1        0.0191
     34 N         139.4481  138.9635  165.1298 N.3     1  UNL1       -0.2724
     35 C         141.6987  137.7326  164.7181 C.3     1  UNL1        0.0188
     36 C         140.1999  137.7148  164.7757 C.3     1  UNL1        0.0721
     37 C         138.9716  139.1789  166.5357 C.3     1  UNL1        0.0721
     38 C         137.6847  138.5599  166.9945 C.3     1  UNL1        0.0188
@<TRIPOS>BOND
     1    35    36    1
     2    36    34    1
     3    34    37    1
     4    37    38    1
     5    34    32    1
     6    32    33    1
     7    32    31    1
     8    31    27    1
     9    27    28   am
    10    28    29    2
    11    28     1    1
    12     1     2   ar
    13     2     3   ar
    14     3     7    1
    15     7     8   ar
    16     8     9   ar
    17     9    10   ar
    18    10    11   ar
    19    11    12   ar
    20    12    13   ar
    21    13    16    1
    22    16    17   ar
    23    17    18   ar
    24    18    19   ar
    25    19    20   ar
    26    13    14   ar
    27    14    15   ar
    28     3     4   ar
    29     4     5   ar
    30     5    21    1
    31    21    22    1
    32    22    23    1
    33    23    24    1
    34    23    25    1
    35     5     6   ar
    36     6     1   ar
    37    15     7   ar
    38    25    21    1
    39    15    10   ar
    40    20    16   ar
    41    27    30    1
    42    24    26    1
@<TRIPOS>MOLECULE
*****
 38 42 0 0 0
SMALL
GASTEIGER

@<TRIPOS>ATOM
      1 C         140.6518  144.5699  159.1614 C.ar    1  UNL1        0.0576
      2 C         140.9456  143.1653  158.7247 C.ar    1  UNL1        0.0239
      3 C         140.9816  142.8260  157.2641 C.ar    1  UNL1        0.0874
      4 N         140.7239  143.8914  156.2401 N.ar    1  UNL1       -0.2305
      5 C         140.4301  145.2961  156.6768 C.ar    1  UNL1        0.1319
      6 C         140.3941  145.6353  158.1375 C.ar    1  UNL1        0.0388
      7 C         141.2754  141.4214  156.8274 C.ar    1  UNL1        0.0743
      8 C         141.1313  140.8826  155.4349 C.ar    1  UNL1        0.1251
      9 N         141.5317  139.4372  155.4534 N.ar    1  UNL1       -0.1620
     10 N         141.9233  139.0826  156.8573 N.ar    1  UNL1       -0.2106
     11 C         142.4037  137.8015  157.4721 C.ar    1  UNL1        0.1036
     12 C         142.7257  137.7467  158.9361 C.ar    1  UNL1        0.0404
     13 C         142.5673  138.9730  159.7853 C.ar    1  UNL1        0.0905
     14 N         142.0870  140.2541  159.1705 N.ar    1  UNL1       -0.2259
     15 C         141.7650  140.3089  157.7065 C.ar    1  UNL1        0.1667
     16 C         142.8893  138.9182  161.2494 C.ar    1  UNL1        0.0472
     17 C         142.1057  138.1853  162.2976 C.ar    1  UNL1        0.0085
     18 C         142.7835  138.4008  163.6182 C.ar    1  UNL1        0.0075
     19 C         143.9861  139.2669  163.3862 C.ar    1  UNL1        0.0355
     20 S         144.0514  139.5866  161.9221 S.2     1  UNL1       -0.0849
     21 N         140.1723  146.3613  155.6528 N.pl3   1  UNL1       -0.2882
     22 C         139.2829  147.5668  155.5771 C.3     1  UNL1        0.1231
     23 C         139.8077  147.8680  154.2046 C.3     1  UNL1        0.1499
     24 O         139.5500  148.9333  153.1806 O.3     1  UNL1       -0.3810
     25 C         140.6972  146.6626  154.2803 C.3     1  UNL1        0.1231
     26 H         140.1042  148.7731  152.4008 H       1  UNL1        0.2105
     27 N         141.8959  145.0531  161.3905 N.am    1  UNL1       -0.2995
     28 C         140.6158  144.9092  160.6221 C.2     1  UNL1        0.2460
     29 O         139.2995  145.1046  161.3144 O.2     1  UNL1       -0.2701
     30 H         142.7598  144.9249  160.9361 H       1  UNL1        0.1498
     31 C         141.8599  145.3924  162.8512 C.3     1  UNL1        0.1056
     32 C         142.2687  144.3692  163.8691 C.3     1  UNL1        0.0772
     33 C         143.6460  144.4097  164.4619 C.3     1  UNL1        0.0191
     34 N         141.3002  143.3055  164.2942 N.3     1  UNL1       -0.2724
     35 C         139.1254  144.5221  165.0289 C.3     1  UNL1        0.0188
     36 C         140.2701  143.6049  165.3426 C.3     1  UNL1        0.0721
     37 C         141.3619  141.9426  163.6709 C.3     1  UNL1        0.0721
     38 C         140.5869  141.6544  162.4194 C.3     1  UNL1        0.0188
@<TRIPOS>BOND
     1    35    36    1
     2    36    34    1
     3    34    37    1
     4    37    38    1
     5    34    32    1
     6    32    33    1
     7    32    31    1
     8    31    27    1
     9    27    28   am
    10    28    29    2
    11    28     1    1
    12     1     2   ar
    13     2     3   ar
    14     3     7    1
    15     7     8   ar
    16     8     9   ar
    17     9    10   ar
    18    10    11   ar
    19    11    12   ar
    20    12    13   ar
    21    13    16    1
    22    16    17   ar
    23    17    18   ar
    24    18    19   ar
    25    19    20   ar
    26    13    14   ar
    27    14    15   ar
    28     3     4   ar
    29     4     5   ar
    30     5    21    1
    31    21    22    1
    32    22    23    1
    33    23    24    1
    34    23    25    1
    35     5     6   ar
    36     6     1   ar
    37    15     7   ar
    38    25    21    1
    39    15    10   ar
    40    20    16   ar
    41    27    30    1
    42    24    26    1
@<TRIPOS>MOLECULE
*****
 38 42 0 0 0
SMALL
GASTEIGER

@<TRIPOS>ATOM
      1 C         142.0268  138.6111  158.9245 C.ar    1  UNL1        0.0576
      2 C         141.5177  137.7163  157.8335 C.ar    1  UNL1        0.0239
      3 C         142.0620  137.8461  156.4419 C.ar    1  UNL1        0.0874
      4 N         143.1154  138.8709  156.1411 N.ar    1  UNL1       -0.2305
      5 C         143.6245  139.7657  157.2321 C.ar    1  UNL1        0.1319
      6 C         143.0802  139.6358  158.6238 C.ar    1  UNL1        0.0388
      7 C         141.5529  136.9513  155.3509 C.ar    1  UNL1        0.0743
      8 C         140.7121  137.3753  154.1833 C.ar    1  UNL1        0.1251
      9 N         140.4348  136.1615  153.3467 N.ar    1  UNL1       -0.1620
     10 N         141.1042  134.9874  153.9974 N.ar    1  UNL1       -0.2106
     11 C         141.1739  133.5368  153.6220 C.ar    1  UNL1        0.1036
     12 C         141.9345  132.5744  154.4852 C.ar    1  UNL1        0.0404
     13 C         142.6255  133.0625  155.7238 C.ar    1  UNL1        0.0905
     14 N         142.5559  134.5131  156.0992 N.ar    1  UNL1       -0.2259
     15 C         141.7953  135.4755  155.2360 C.ar    1  UNL1        0.1667
     16 C         143.3861  132.1000  156.5871 C.ar    1  UNL1        0.0472
     17 C         143.0567  130.6514  156.7942 C.ar    1  UNL1        0.0085
     18 C         144.0767  130.0733  157.7299 C.ar    1  UNL1        0.0075
     19 C         145.0365  131.1647  158.1009 C.ar    1  UNL1        0.0355
     20 S         144.6097  132.4172  157.3946 S.2     1  UNL1       -0.0849
     21 N         144.6778  140.7903  156.9312 N.pl3   1  UNL1       -0.2882
     22 C         145.0691  142.1135  157.5195 C.3     1  UNL1        0.1231
     23 C         146.1675  142.2394  156.5059 C.3     1  UNL1        0.1499
     24 O         147.2209  143.2641  156.2051 O.3     1  UNL1       -0.3810
     25 C         145.7763  140.9162  155.9176 C.3     1  UNL1        0.1231
     26 H         147.7528  142.9687  155.4496 H       1  UNL1        0.2105
     27 N         142.1806  137.6080  161.3161 N.am    1  UNL1       -0.2995
     28 C         141.4825  138.4813  160.3162 C.2     1  UNL1        0.2460
     29 O         140.2400  139.2247  160.7080 O.2     1  UNL1       -0.2701
     30 H         142.9961  137.1200  161.0590 H       1  UNL1        0.1498
     31 C         141.6363  137.4781  162.7078 C.3     1  UNL1        0.1056
     32 C         142.0523  138.4524  163.7699 C.3     1  UNL1        0.0772
     33 C         141.6625  138.2159  165.1989 C.3     1  UNL1        0.0191
     34 N         142.8581  139.6632  163.4028 N.3     1  UNL1       -0.2724
     35 C         145.2277  140.4077  164.1647 C.3     1  UNL1        0.0188
     36 C         144.3504  139.5642  163.2878 C.3     1  UNL1        0.0721
     37 C         142.1716  140.9728  163.1507 C.3     1  UNL1        0.0721
     38 C         142.4926  141.7625  161.9165 C.3     1  UNL1        0.0188
@<TRIPOS>BOND
     1    35    36    1
     2    36    34    1
     3    34    37    1
     4    37    38    1
     5    34    32    1
     6    32    33    1
     7    32    31    1
     8    31    27    1
     9    27    28   am
    10    28    29    2
    11    28     1    1
    12     1     2   ar
    13     2     3   ar
    14     3     7    1
    15     7     8   ar
    16     8     9   ar
    17     9    10   ar
    18    10    11   ar
    19    11    12   ar
    20    12    13   ar
    21    13    16    1
    22    16    17   ar
    23    17    18   ar
    24    18    19   ar
    25    19    20   ar
    26    13    14   ar
    27    14    15   ar
    28     3     4   ar
    29     4     5   ar
    30     5    21    1
    31    21    22    1
    32    22    23    1
    33    23    24    1
    34    23    25    1
    35     5     6   ar
    36     6     1   ar
    37    15     7   ar
    38    25    21    1
    39    15    10   ar
    40    20    16   ar
    41    27    30    1
    42    24    26    1
@<TRIPOS>MOLECULE
*****
 38 42 0 0 0
SMALL
GASTEIGER

@<TRIPOS>ATOM
      1 C         142.8809  141.9723  162.2610 C.ar    1  UNL1        0.0576
      2 C         143.7936  141.9903  161.0708 C.ar    1  UNL1        0.0239
      3 C         143.2991  141.5091  159.7390 C.ar    1  UNL1        0.0874
      4 N         141.8916  141.0099  159.5974 N.ar    1  UNL1       -0.2305
      5 C         140.9789  140.9919  160.7877 C.ar    1  UNL1        0.1319
      6 C         141.4736  141.4731  162.1195 C.ar    1  UNL1        0.0388
      7 C         144.2118  141.5271  158.5488 C.ar    1  UNL1        0.0743
      8 C         145.2099  142.5973  158.2193 C.ar    1  UNL1        0.1251
      9 N         145.9016  142.2097  156.9460 N.ar    1  UNL1       -0.1620
     10 N         145.3309  140.9001  156.4886 N.ar    1  UNL1       -0.2106
     11 C         145.6274  140.0371  155.2980 C.ar    1  UNL1        0.1036
     12 C         144.8795  138.7523  155.0981 C.ar    1  UNL1        0.0404
     13 C         143.8351  138.3305  156.0887 C.ar    1  UNL1        0.0905
     14 N         143.5387  139.1934  157.2792 N.ar    1  UNL1       -0.2259
     15 C         144.2866  140.4782  157.4792 C.ar    1  UNL1        0.1667
     16 C         143.0872  137.0457  155.8887 C.ar    1  UNL1        0.0472
     17 C         141.6044  136.9074  155.7089 C.ar    1  UNL1        0.0085
     18 C         141.2916  135.4499  155.5425 C.ar    1  UNL1        0.0075
     19 C         142.5810  134.6873  155.6195 C.ar    1  UNL1        0.0355
     20 S         143.6907  135.6736  155.8334 S.2     1  UNL1       -0.0849
     21 N         139.5715  140.4927  160.6460 N.pl3   1  UNL1       -0.2882
     22 C         138.9050  139.4109  159.8488 C.3     1  UNL1        0.1231
     23 C         137.5812  139.7867  160.4455 C.3     1  UNL1        0.1499
     24 O         136.1738  139.2875  160.3039 O.3     1  UNL1       -0.3810
     25 C         138.2477  140.8685  161.2428 C.3     1  UNL1        0.1231
     26 H         135.5871  139.8082  160.8743 H       1  UNL1        0.2105
     27 N         142.7984  141.8877  164.8564 N.am    1  UNL1       -0.2995
     28 C         143.3756  142.4535  163.5929 C.2     1  UNL1        0.2460
     29 O         144.4476  143.5005  163.6611 O.2     1  UNL1       -0.2701
     30 H         142.0949  141.2005  164.8117 H       1  UNL1        0.1498
     31 C         143.2931  142.3689  166.1882 C.3     1  UNL1        0.1056
     32 C         142.8505  141.6813  167.4458 C.3     1  UNL1        0.0772
     33 C         143.1631  142.2873  168.7819 C.3     1  UNL1        0.0191
     34 N         142.0952  140.3877  167.3673 N.3     1  UNL1       -0.2724
     35 C         143.5118  138.5743  166.1614 C.3     1  UNL1        0.0188
     36 C         142.8358  139.0837  167.3997 C.3     1  UNL1        0.0721
     37 C         140.5993  140.3981  167.2564 C.3     1  UNL1        0.0721
     38 C         139.9214  139.6019  166.1810 C.3     1  UNL1        0.0188
@<TRIPOS>BOND
     1    35    36    1
     2    36    34    1
     3    34    37    1
     4    37    38    1
     5    34    32    1
     6    32    33    1
     7    32    31    1
     8    31    27    1
     9    27    28   am
    10    28    29    2
    11    28     1    1
    12     1     2   ar
    13     2     3   ar
    14     3     7    1
    15     7     8   ar
    16     8     9   ar
    17     9    10   ar
    18    10    11   ar
    19    11    12   ar
    20    12    13   ar
    21    13    16    1
    22    16    17   ar
    23    17    18   ar
    24    18    19   ar
    25    19    20   ar
    26    13    14   ar
    27    14    15   ar
    28     3     4   ar
    29     4     5   ar
    30     5    21    1
    31    21    22    1
    32    22    23    1
    33    23    24    1
    34    23    25    1
    35     5     6   ar
    36     6     1   ar
    37    15     7   ar
    38    25    21    1
    39    15    10   ar
    40    20    16   ar
    41    27    30    1
    42    24    26    1
