@<TRIPOS>MOLECULE
*****
 32 34 0 0 0
SMALL
GASTEIGER

@<TRIPOS>ATOM
      1 C         141.6545  139.8255  165.6600 C.2     1  UNL1        0.2488
      2 O         141.8994  141.0994  164.9070 O.2     1  UNL1       -0.2700
      3 N         141.7434  138.5065  164.9514 N.am    1  UNL1       -0.2999
      4 H         141.5827  137.6703  165.4456 H       1  UNL1        0.1498
      5 C         139.8936  140.0128  167.5611 C.ar    1  UNL1        0.1443
      6 C         139.5599  140.0579  169.0228 C.ar    1  UNL1        0.0520
      7 C         140.6533  139.9607  170.0451 C.ar    1  UNL1        0.0553
      8 N         140.3195  140.0058  171.5069 N.pl3   1  UNL1       -0.3563
      9 C         142.0804  139.8186  169.6057 C.ar    1  UNL1        0.0709
     10 CL        143.1738  139.7214  170.6280 Cl      1  UNL1       -0.0810
     11 C         142.4141  139.7735  168.1441 C.ar    1  UNL1        0.0202
     12 C         141.3208  139.8706  167.1218 C.ar    1  UNL1        0.0882
     13 H         139.3828  140.0992  171.7952 H       1  UNL1        0.1424
     14 H         141.0371  139.9421  172.1778 H       1  UNL1        0.1424
     15 C         138.1236  138.8661  166.0439 C.3     1  UNL1        0.2525
     16 O         138.8003  140.1099  166.5388 O.3     1  UNL1       -0.4712
     17 C         142.0772  138.4613  163.4897 C.3     1  UNL1        0.1017
     18 C         143.4744  138.7554  163.0300 C.3     1  UNL1        0.0394
     19 C         143.8082  138.7102  161.5682 C.3     1  UNL1        0.0739
     20 N         142.7447  138.3711  160.5663 N.3     1  UNL1       -0.2705
     21 C         141.3475  138.0770  161.0260 C.3     1  UNL1        0.1037
     22 C         141.0137  138.1221  162.4876 C.3     1  UNL1        0.1490
     23 O         139.6165  137.8281  162.9473 O.3     1  UNL1       -0.3505
     24 C         138.4515  138.1474  162.0581 C.3     1  UNL1        0.1741
     25 C         143.0785  138.3259  159.1046 C.3     1  UNL1        0.0742
     26 C         142.2711  137.4670  158.1771 C.3     1  UNL1        0.0418
     27 C         142.9207  136.8402  156.9791 C.3     1  UNL1        0.1075
     28 N         142.7438  135.3750  156.7106 N.ar    1  UNL1       -0.3249
     29 C         141.8308  134.7705  155.6855 C.ar    1  UNL1        0.0760
     30 C         141.9715  133.2790  155.7614 C.ar    1  UNL1        0.0202
     31 C         142.9714  132.9618  156.8336 C.ar    1  UNL1        0.0202
     32 C         143.4488  134.2572  157.4203 C.ar    1  UNL1        0.0760
@<TRIPOS>BOND
     1    15    16    1
     2    16     5    1
     3     5     6   ar
     4     6     7   ar
     5     7     8    1
     6     7     9   ar
     7     9    10    1
     8     9    11   ar
     9    11    12   ar
    10    12     1    1
    11     1     2    2
    12     1     3   am
    13    17     3    1
    14    17    18    1
    15    18    19    1
    16    19    20    1
    17    20    25    1
    18    25    26    1
    19    26    27    1
    20    27    28    1
    21    28    29   ar
    22    29    30   ar
    23    30    31   ar
    24    31    32   ar
    25    20    21    1
    26    21    22    1
    27    22    23    1
    28    23    24    1
    29    12     5   ar
    30    22    17    1
    31    32    28   ar
    32     8    13    1
    33     8    14    1
    34     3     4    1
@<TRIPOS>MOLECULE
*****
 32 34 0 0 0
SMALL
GASTEIGER

@<TRIPOS>ATOM
      1 C         141.8045  139.2804  165.7751 C.2     1  UNL1        0.2488
      2 O         142.6247  138.0662  165.4540 O.2     1  UNL1       -0.2700
      3 N         141.3438  140.1873  164.6726 N.am    1  UNL1       -0.2999
      4 H         140.8055  140.9842  164.8834 H       1  UNL1        0.1498
      5 C         140.0357  139.9600  167.5525 C.ar    1  UNL1        0.1443
      6 C         139.6761  140.2673  168.9760 C.ar    1  UNL1        0.0520
      7 C         140.7259  140.2022  170.0455 C.ar    1  UNL1        0.0553
      8 N         140.3663  140.5095  171.4690 N.pl3   1  UNL1       -0.3563
      9 C         142.1351  139.8298  169.6916 C.ar    1  UNL1        0.0709
     10 CL        143.1848  139.7647  170.7611 Cl      1  UNL1       -0.0810
     11 C         142.4946  139.5226  168.2681 C.ar    1  UNL1        0.0202
     12 C         141.4449  139.5876  167.1986 C.ar    1  UNL1        0.0882
     13 H         139.4413  140.7539  171.7014 H       1  UNL1        0.1424
     14 H         141.0552  140.4668  172.1710 H       1  UNL1        0.1424
     15 C         138.0723  138.8572  166.2568 C.3     1  UNL1        0.2525
     16 O         138.9859  140.0251  166.4830 O.3     1  UNL1       -0.4712
     17 C         141.7034  139.8800  163.2492 C.3     1  UNL1        0.1017
     18 C         140.7453  139.1195  162.3810 C.3     1  UNL1        0.0394
     19 C         141.1049  138.8123  160.9575 C.3     1  UNL1        0.0739
     20 N         142.4225  139.2656  160.4022 N.3     1  UNL1       -0.2705
     21 C         143.3806  140.0261  161.2703 C.3     1  UNL1        0.1037
     22 C         143.0210  140.3333  162.6938 C.3     1  UNL1        0.1490
     23 O         143.9791  141.0939  163.5620 O.3     1  UNL1       -0.3505
     24 C         145.2150  140.4220  164.0826 C.3     1  UNL1        0.1741
     25 C         142.7820  138.9583  158.9787 C.3     1  UNL1        0.0742
     26 C         142.2151  137.7425  158.3076 C.3     1  UNL1        0.0418
     27 C         142.8756  137.1863  157.0810 C.3     1  UNL1        0.1075
     28 N         142.6579  135.7528  156.6967 N.ar    1  UNL1       -0.3249
     29 C         141.6954  135.2543  155.6599 C.ar    1  UNL1        0.0760
     30 C         141.8072  133.7595  155.6041 C.ar    1  UNL1        0.0202
     31 C         142.8388  133.3341  156.6065 C.ar    1  UNL1        0.0202
     32 C         143.3646  134.5660  157.2818 C.ar    1  UNL1        0.0760
@<TRIPOS>BOND
     1    15    16    1
     2    16     5    1
     3     5     6   ar
     4     6     7   ar
     5     7     8    1
     6     7     9   ar
     7     9    10    1
     8     9    11   ar
     9    11    12   ar
    10    12     1    1
    11     1     2    2
    12     1     3   am
    13    17     3    1
    14    17    18    1
    15    18    19    1
    16    19    20    1
    17    20    25    1
    18    25    26    1
    19    26    27    1
    20    27    28    1
    21    28    29   ar
    22    29    30   ar
    23    30    31   ar
    24    31    32   ar
    25    20    21    1
    26    21    22    1
    27    22    23    1
    28    23    24    1
    29    12     5   ar
    30    22    17    1
    31    32    28   ar
    32     8    13    1
    33     8    14    1
    34     3     4    1
@<TRIPOS>MOLECULE
*****
 32 34 0 0 0
SMALL
GASTEIGER

@<TRIPOS>ATOM
      1 C         140.6497  141.9520  165.6413 C.2     1  UNL1        0.2488
      2 O         140.0530  140.6224  165.2862 O.2     1  UNL1       -0.2700
      3 N         140.7103  143.0448  164.6156 N.am    1  UNL1       -0.2999
      4 H         141.1019  143.9175  164.8487 H       1  UNL1        0.1498
      5 C         142.6671  142.2223  167.2559 C.ar    1  UNL1        0.1443
      6 C         143.2032  142.4590  168.6366 C.ar    1  UNL1        0.0520
      7 C         142.2581  142.6622  169.7835 C.ar    1  UNL1        0.0553
      8 N         142.7943  142.8990  171.1644 N.pl3   1  UNL1       -0.3563
      9 C         140.7768  142.6286  169.5497 C.ar    1  UNL1        0.0709
     10 CL        139.8317  142.8318  170.6966 Cl      1  UNL1       -0.0810
     11 C         140.2407  142.3919  168.1690 C.ar    1  UNL1        0.0202
     12 C         141.1859  142.1887  167.0221 C.ar    1  UNL1        0.0882
     13 H         143.7665  142.9210  171.3178 H       1  UNL1        0.1424
     14 H         142.1739  143.0323  171.9171 H       1  UNL1        0.1424
     15 C         144.2742  143.2007  165.4642 C.3     1  UNL1        0.2525
     16 O         143.6123  142.0191  166.1090 O.3     1  UNL1       -0.4712
     17 C         140.1741  142.8082  163.2349 C.3     1  UNL1        0.1017
     18 C         138.7070  142.9624  162.9633 C.3     1  UNL1        0.0394
     19 C         138.1709  142.7257  161.5825 C.3     1  UNL1        0.0739
     20 N         139.1019  142.3347  160.4733 N.3     1  UNL1       -0.2705
     21 C         140.5690  142.1805  160.7448 C.3     1  UNL1        0.1037
     22 C         141.1051  142.4172  162.1256 C.3     1  UNL1        0.1490
     23 O         142.5723  142.2629  162.3971 O.3     1  UNL1       -0.3505
     24 C         143.1375  140.9111  162.7182 C.3     1  UNL1        0.1741
     25 C         138.5657  142.0981  159.0926 C.3     1  UNL1        0.0742
     26 C         138.0567  140.7404  158.7082 C.3     1  UNL1        0.0418
     27 C         138.8961  139.5242  158.9657 C.3     1  UNL1        0.1075
     28 N         138.9872  138.9554  160.3507 N.ar    1  UNL1       -0.3249
     29 C         137.8716  138.8871  161.3510 C.ar    1  UNL1        0.0760
     30 C         138.4048  138.2445  162.5971 C.ar    1  UNL1        0.0202
     31 C         139.8501  137.9156  162.3669 C.ar    1  UNL1        0.0202
     32 C         140.2101  138.3549  160.9785 C.ar    1  UNL1        0.0760
@<TRIPOS>BOND
     1    15    16    1
     2    16     5    1
     3     5     6   ar
     4     6     7   ar
     5     7     8    1
     6     7     9   ar
     7     9    10    1
     8     9    11   ar
     9    11    12   ar
    10    12     1    1
    11     1     2    2
    12     1     3   am
    13    17     3    1
    14    17    18    1
    15    18    19    1
    16    19    20    1
    17    20    25    1
    18    25    26    1
    19    26    27    1
    20    27    28    1
    21    28    29   ar
    22    29    30   ar
    23    30    31   ar
    24    31    32   ar
    25    20    21    1
    26    21    22    1
    27    22    23    1
    28    23    24    1
    29    12     5   ar
    30    22    17    1
    31    32    28   ar
    32     8    13    1
    33     8    14    1
    34     3     4    1
@<TRIPOS>MOLECULE
*****
 32 34 0 0 0
SMALL
GASTEIGER

@<TRIPOS>ATOM
      1 C         142.9347  141.7137  165.7606 C.2     1  UNL1        0.2488
      2 O         141.8927  142.5805  165.1181 O.2     1  UNL1       -0.2700
      3 N         144.0681  141.1712  164.9414 N.am    1  UNL1       -0.2999
      4 H         144.7520  140.6023  165.3631 H       1  UNL1        0.1498
      5 C         142.6651  139.9676  167.6654 C.ar    1  UNL1        0.1443
      6 C         142.5739  139.6434  169.1271 C.ar    1  UNL1        0.0520
      7 C         142.6609  140.7411  170.1456 C.ar    1  UNL1        0.0553
      8 N         142.5696  140.4168  171.6074 N.pl3   1  UNL1       -0.3563
      9 C         142.8391  142.1630  169.7026 C.ar    1  UNL1        0.0709
     10 CL        142.9261  143.2607  170.7211 Cl      1  UNL1       -0.0810
     11 C         142.9304  142.4872  168.2409 C.ar    1  UNL1        0.0202
     12 C         142.8434  141.3895  167.2223 C.ar    1  UNL1        0.0882
     13 H         142.4525  139.4835  171.8982 H       1  UNL1        0.1424
     14 H         142.6266  141.1372  172.2759 H       1  UNL1        0.1424
     15 C         143.7687  137.9968  166.3815 C.3     1  UNL1        0.2525
     16 O         142.5782  138.8699  166.6468 O.3     1  UNL1       -0.4712
     17 C         144.1594  141.4954  163.4797 C.3     1  UNL1        0.1017
     18 C         144.4214  142.9051  163.0391 C.3     1  UNL1        0.0394
     19 C         144.5127  143.2293  161.5774 C.3     1  UNL1        0.0739
     20 N         144.3421  142.1438  160.5563 N.3     1  UNL1       -0.2705
     21 C         144.0802  140.7341  160.9969 C.3     1  UNL1        0.1037
     22 C         143.9888  140.4099  162.4586 C.3     1  UNL1        0.1490
     23 O         143.7269  139.0002  162.8992 O.3     1  UNL1       -0.3505
     24 C         142.8849  138.0935  162.0513 C.3     1  UNL1        0.1741
     25 C         144.4334  142.4680  159.0947 C.3     1  UNL1        0.0742
     26 C         143.3127  143.1994  158.4172 C.3     1  UNL1        0.0418
     27 C         141.8923  142.9350  158.8208 C.3     1  UNL1        0.1075
     28 N         141.3039  143.6460  160.0033 N.ar    1  UNL1       -0.3249
     29 C         140.8229  143.0018  161.2697 C.ar    1  UNL1        0.0760
     30 C         140.3150  144.0836  162.1761 C.ar    1  UNL1        0.0202
     31 C         140.4820  145.3964  161.4700 C.ar    1  UNL1        0.0202
     32 C         141.0933  145.1260  160.1271 C.ar    1  UNL1        0.0760
@<TRIPOS>BOND
     1    15    16    1
     2    16     5    1
     3     5     6   ar
     4     6     7   ar
     5     7     8    1
     6     7     9   ar
     7     9    10    1
     8     9    11   ar
     9    11    12   ar
    10    12     1    1
    11     1     2    2
    12     1     3   am
    13    17     3    1
    14    17    18    1
    15    18    19    1
    16    19    20    1
    17    20    25    1
    18    25    26    1
    19    26    27    1
    20    27    28    1
    21    28    29   ar
    22    29    30   ar
    23    30    31   ar
    24    31    32   ar
    25    20    21    1
    26    21    22    1
    27    22    23    1
    28    23    24    1
    29    12     5   ar
    30    22    17    1
    31    32    28   ar
    32     8    13    1
    33     8    14    1
    34     3     4    1
@<TRIPOS>MOLECULE
*****
 32 34 0 0 0
SMALL
GASTEIGER

@<TRIPOS>ATOM
      1 C         141.9270  140.3061  165.6930 C.2     1  UNL1        0.2488
      2 O         142.7280  141.4893  165.2364 O.2     1  UNL1       -0.2700
      3 N         141.5583  139.2283  164.7171 N.am    1  UNL1       -0.2999
      4 H         141.0326  138.4517  165.0168 H       1  UNL1        0.1498
      5 C         140.0347  140.1912  167.4696 C.ar    1  UNL1        0.1443
      6 C         139.6025  140.0858  168.9020 C.ar    1  UNL1        0.0520
      7 C         140.6302  139.9899  169.9904 C.ar    1  UNL1        0.0553
      8 N         140.1979  139.8845  171.4230 N.pl3   1  UNL1       -0.3563
      9 C         142.0902  139.9994  169.6464 C.ar    1  UNL1        0.0709
     10 CL        143.1179  139.9034  170.7348 Cl      1  UNL1       -0.0810
     11 C         142.5224  140.1048  168.2139 C.ar    1  UNL1        0.0202
     12 C         141.4947  140.2007  167.1255 C.ar    1  UNL1        0.0882
     13 H         139.2397  139.8783  171.6488 H       1  UNL1        0.1424
     14 H         140.8724  139.8215  172.1373 H       1  UNL1        0.1424
     15 C         138.1248  139.1128  166.0771 C.3     1  UNL1        0.2525
     16 O         139.0070  140.2872  166.3812 O.3     1  UNL1       -0.4712
     17 C         141.9906  139.3336  163.2846 C.3     1  UNL1        0.1017
     18 C         143.3626  138.8823  162.8801 C.3     1  UNL1        0.0394
     19 C         143.7949  138.9876  161.4475 C.3     1  UNL1        0.0739
     20 N         142.8551  139.5444  160.4196 N.3     1  UNL1       -0.2705
     21 C         141.4830  139.9957  160.8241 C.3     1  UNL1        0.1037
     22 C         141.0507  139.8904  162.2566 C.3     1  UNL1        0.1490
     23 O         139.6786  140.3418  162.6611 O.3     1  UNL1       -0.3505
     24 C         139.4525  141.7605  163.0922 C.3     1  UNL1        0.1741
     25 C         143.2873  139.6497  158.9871 C.3     1  UNL1        0.0742
     26 C         144.2494  140.7227  158.5710 C.3     1  UNL1        0.0418
     27 C         143.9054  142.1658  158.7931 C.3     1  UNL1        0.1075
     28 N         143.8376  142.7146  160.1874 N.ar    1  UNL1       -0.3249
     29 C         144.8950  142.5753  161.2421 C.ar    1  UNL1        0.0760
     30 C         144.4115  143.2738  162.4784 C.ar    1  UNL1        0.0202
     31 C         143.0553  143.8448  162.1877 C.ar    1  UNL1        0.0202
     32 C         142.7005  143.4993  160.7718 C.ar    1  UNL1        0.0760
@<TRIPOS>BOND
     1    15    16    1
     2    16     5    1
     3     5     6   ar
     4     6     7   ar
     5     7     8    1
     6     7     9   ar
     7     9    10    1
     8     9    11   ar
     9    11    12   ar
    10    12     1    1
    11     1     2    2
    12     1     3   am
    13    17     3    1
    14    17    18    1
    15    18    19    1
    16    19    20    1
    17    20    25    1
    18    25    26    1
    19    26    27    1
    20    27    28    1
    21    28    29   ar
    22    29    30   ar
    23    30    31   ar
    24    31    32   ar
    25    20    21    1
    26    21    22    1
    27    22    23    1
    28    23    24    1
    29    12     5   ar
    30    22    17    1
    31    32    28   ar
    32     8    13    1
    33     8    14    1
    34     3     4    1
@<TRIPOS>MOLECULE
*****
 32 34 0 0 0
SMALL
GASTEIGER

@<TRIPOS>ATOM
      1 C         140.1792  142.0206  165.1368 C.2     1  UNL1        0.2488
      2 O         141.3218  141.4549  164.3466 O.2     1  UNL1       -0.2700
      3 N         139.0972  142.7934  164.4427 N.am    1  UNL1       -0.2999
      4 H         138.3472  143.1647  164.9613 H       1  UNL1        0.1498
      5 C         139.7392  140.4726  167.1765 C.ar    1  UNL1        0.1443
      6 C         139.6786  140.2655  168.6609 C.ar    1  UNL1        0.0520
      7 C         139.9975  141.3991  169.5900 C.ar    1  UNL1        0.0553
      8 N         139.9369  141.1918  171.0744 N.pl3   1  UNL1       -0.3563
      9 C         140.3770  142.7398  169.0347 C.ar    1  UNL1        0.0709
     10 CL        140.6959  143.8734  169.9638 Cl      1  UNL1       -0.0810
     11 C         140.4376  142.9469  167.5504 C.ar    1  UNL1        0.0202
     12 C         140.1186  141.8134  166.6212 C.ar    1  UNL1        0.0882
     13 H         139.6878  140.3118  171.4388 H       1  UNL1        0.1424
     14 H         140.1462  141.9359  171.6842 H       1  UNL1        0.1424
     15 C         138.0759  138.6764  166.3064 C.3     1  UNL1        0.2525
     16 O         139.4203  139.3390  166.2474 O.3     1  UNL1       -0.4712
     17 C         139.1577  143.0006  162.9583 C.3     1  UNL1        0.1017
     18 C         138.4385  142.0580  162.0395 C.3     1  UNL1        0.0394
     19 C         138.4991  142.2653  160.5551 C.3     1  UNL1        0.0739
     20 N         139.2788  143.4151  159.9895 N.3     1  UNL1       -0.2705
     21 C         139.9980  144.3578  160.9084 C.3     1  UNL1        0.1037
     22 C         139.9374  144.1505  162.3927 C.3     1  UNL1        0.1490
     23 O         140.6566  145.0932  163.3116 O.3     1  UNL1       -0.3505
     24 C         142.1434  144.9884  163.4797 C.3     1  UNL1        0.1741
     25 C         139.3394  143.6224  158.5052 C.3     1  UNL1        0.0742
     26 C         140.5713  144.2057  157.8790 C.3     1  UNL1        0.0418
     27 C         140.7281  145.6940  157.7773 C.3     1  UNL1        0.1075
     28 N         140.2639  146.4147  156.5464 N.ar    1  UNL1       -0.3249
     29 C         140.8596  146.2916  155.1752 C.ar    1  UNL1        0.0760
     30 C         140.0864  147.1859  154.2519 C.ar    1  UNL1        0.0202
     31 C         139.0128  147.8616  155.0524 C.ar    1  UNL1        0.0202
     32 C         139.1225  147.3851  156.4705 C.ar    1  UNL1        0.0760
@<TRIPOS>BOND
     1    15    16    1
     2    16     5    1
     3     5     6   ar
     4     6     7   ar
     5     7     8    1
     6     7     9   ar
     7     9    10    1
     8     9    11   ar
     9    11    12   ar
    10    12     1    1
    11     1     2    2
    12     1     3   am
    13    17     3    1
    14    17    18    1
    15    18    19    1
    16    19    20    1
    17    20    25    1
    18    25    26    1
    19    26    27    1
    20    27    28    1
    21    28    29   ar
    22    29    30   ar
    23    30    31   ar
    24    31    32   ar
    25    20    21    1
    26    21    22    1
    27    22    23    1
    28    23    24    1
    29    12     5   ar
    30    22    17    1
    31    32    28   ar
    32     8    13    1
    33     8    14    1
    34     3     4    1
@<TRIPOS>MOLECULE
*****
 32 34 0 0 0
SMALL
GASTEIGER

@<TRIPOS>ATOM
      1 C         139.8388  141.4923  165.4257 C.2     1  UNL1        0.2488
      2 O         141.0624  141.7659  164.6023 O.2     1  UNL1       -0.2700
      3 N         138.5268  141.2196  164.7516 N.am    1  UNL1       -0.2999
      4 H         137.7237  141.0400  165.2920 H       1  UNL1        0.1498
      5 C         139.5797  140.2526  167.6942 C.ar    1  UNL1        0.1443
      6 C         139.6681  140.2518  169.1915 C.ar    1  UNL1        0.0520
      7 C         140.1037  141.4898  169.9178 C.ar    1  UNL1        0.0553
      8 N         140.1921  141.4889  171.4153 N.pl3   1  UNL1       -0.3563
      9 C         140.4511  142.7286  169.1468 C.ar    1  UNL1        0.0709
     10 CL        140.8868  143.9667  169.8731 Cl      1  UNL1       -0.0810
     11 C         140.3628  142.7295  167.6494 C.ar    1  UNL1        0.0202
     12 C         139.9271  141.4914  166.9231 C.ar    1  UNL1        0.0882
     13 H         139.9641  140.6758  171.9214 H       1  UNL1        0.1424
     14 H         140.4780  142.3015  171.8920 H       1  UNL1        0.1424
     15 C         137.7049  138.5931  167.0007 C.3     1  UNL1        0.2525
     16 O         139.1441  139.0146  166.9679 O.3     1  UNL1       -0.4712
     17 C         138.4384  141.2204  163.2542 C.3     1  UNL1        0.1017
     18 C         138.3496  142.5191  162.5089 C.3     1  UNL1        0.0394
     19 C         138.2613  142.5199  161.0115 C.3     1  UNL1        0.0739
     20 N         138.2617  141.2221  160.2594 N.3     1  UNL1       -0.2705
     21 C         138.3505  139.9234  161.0048 C.3     1  UNL1        0.1037
     22 C         138.4388  139.9226  162.5021 C.3     1  UNL1        0.1490
     23 O         138.5276  138.6239  163.2475 O.3     1  UNL1       -0.3505
     24 C         139.7211  137.7340  163.0642 C.3     1  UNL1        0.1741
     25 C         138.1733  141.2230  158.7621 C.3     1  UNL1        0.0742
     26 C         139.4108  141.0258  157.9376 C.3     1  UNL1        0.0418
     27 C         140.2296  142.2108  157.5186 C.3     1  UNL1        0.1075
     28 N         140.6644  143.2205  158.5391 N.ar    1  UNL1       -0.3249
     29 C         140.2013  144.6447  158.6232 C.ar    1  UNL1        0.0760
     30 C         140.8894  145.2878  159.7907 C.ar    1  UNL1        0.0202
     31 C         141.7778  144.2609  160.4281 C.ar    1  UNL1        0.0202
     32 C         141.6388  142.9833  159.6546 C.ar    1  UNL1        0.0760
@<TRIPOS>BOND
     1    15    16    1
     2    16     5    1
     3     5     6   ar
     4     6     7   ar
     5     7     8    1
     6     7     9   ar
     7     9    10    1
     8     9    11   ar
     9    11    12   ar
    10    12     1    1
    11     1     2    2
    12     1     3   am
    13    17     3    1
    14    17    18    1
    15    18    19    1
    16    19    20    1
    17    20    25    1
    18    25    26    1
    19    26    27    1
    20    27    28    1
    21    28    29   ar
    22    29    30   ar
    23    30    31   ar
    24    31    32   ar
    25    20    21    1
    26    21    22    1
    27    22    23    1
    28    23    24    1
    29    12     5   ar
    30    22    17    1
    31    32    28   ar
    32     8    13    1
    33     8    14    1
    34     3     4    1
@<TRIPOS>MOLECULE
*****
 32 34 0 0 0
SMALL
GASTEIGER

@<TRIPOS>ATOM
      1 C         140.5585  142.2717  165.6251 C.2     1  UNL1        0.2488
      2 O         141.8996  142.2458  164.9538 O.2     1  UNL1       -0.2700
      3 N         139.3929  142.9284  164.9468 N.am    1  UNL1       -0.2999
      4 H         138.5126  142.9454  165.3874 H       1  UNL1        0.1498
      5 C         139.4558  140.4737  167.1421 C.ar    1  UNL1        0.1443
      6 C         139.2802  139.8429  168.4916 C.ar    1  UNL1        0.0520
      7 C         140.0319  140.3792  169.6737 C.ar    1  UNL1        0.0553
      8 N         139.8563  139.7484  171.0232 N.pl3   1  UNL1       -0.3563
      9 C         140.9591  141.5464  169.5063 C.ar    1  UNL1        0.0709
     10 CL        141.7107  142.0827  170.6884 Cl      1  UNL1       -0.0810
     11 C         141.1346  142.1772  168.1567 C.ar    1  UNL1        0.0202
     12 C         140.3829  141.6408  166.9746 C.ar    1  UNL1        0.0882
     13 H         139.2478  138.9823  171.1331 H       1  UNL1        0.1424
     14 H         140.3496  140.1004  171.7991 H       1  UNL1        0.1424
     15 C         139.2515  138.7734  165.1883 C.3     1  UNL1        0.2525
     16 O         138.7041  139.9373  165.9600 O.3     1  UNL1       -0.4712
     17 C         139.5684  143.5593  163.5973 C.3     1  UNL1        0.1017
     18 C         139.9195  145.0136  163.4892 C.3     1  UNL1        0.0394
     19 C         140.0950  145.6444  162.1396 C.3     1  UNL1        0.0739
     20 N         139.9194  144.8210  160.8982 N.3     1  UNL1       -0.2705
     21 C         139.5684  143.3666  161.0064 C.3     1  UNL1        0.1037
     22 C         139.3928  142.7358  162.3559 C.3     1  UNL1        0.1490
     23 O         139.0418  141.2815  162.4640 O.3     1  UNL1       -0.3505
     24 C         137.6045  140.8530  162.4397 C.3     1  UNL1        0.1741
     25 C         140.0949  145.4518  159.5487 C.3     1  UNL1        0.0742
     26 C         141.4533  145.5002  158.9144 C.3     1  UNL1        0.0418
     27 C         141.5816  145.6018  157.4233 C.3     1  UNL1        0.1075
     28 N         140.3514  145.6567  156.5668 N.ar    1  UNL1       -0.3249
     29 C         139.6416  146.9010  156.1220 C.ar    1  UNL1        0.0760
     30 C         138.4665  146.4903  155.2849 C.ar    1  UNL1        0.0202
     31 C         138.4502  144.9921  155.2123 C.ar    1  UNL1        0.0202
     32 C         139.6152  144.4769  156.0045 C.ar    1  UNL1        0.0760
@<TRIPOS>BOND
     1    15    16    1
     2    16     5    1
     3     5     6   ar
     4     6     7   ar
     5     7     8    1
     6     7     9   ar
     7     9    10    1
     8     9    11   ar
     9    11    12   ar
    10    12     1    1
    11     1     2    2
    12     1     3   am
    13    17     3    1
    14    17    18    1
    15    18    19    1
    16    19    20    1
    17    20    25    1
    18    25    26    1
    19    26    27    1
    20    27    28    1
    21    28    29   ar
    22    29    30   ar
    23    30    31   ar
    24    31    32   ar
    25    20    21    1
    26    21    22    1
    27    22    23    1
    28    23    24    1
    29    12     5   ar
    30    22    17    1
    31    32    28   ar
    32     8    13    1
    33     8    14    1
    34     3     4    1
@<TRIPOS>MOLECULE
*****
 32 34 0 0 0
SMALL
GASTEIGER

@<TRIPOS>ATOM
      1 C         140.0339  141.5096  165.1071 C.2     1  UNL1        0.2488
      2 O         141.3095  141.8199  164.3816 O.2     1  UNL1       -0.2700
      3 N         138.7781  141.2373  164.3333 N.am    1  UNL1       -0.2999
      4 H         137.9409  141.0336  164.8095 H       1  UNL1        0.1498
      5 C         139.5589  140.2327  167.3194 C.ar    1  UNL1        0.1443
      6 C         139.5391  140.1947  168.8188 C.ar    1  UNL1        0.0520
      7 C         139.9743  141.3955  169.6053 C.ar    1  UNL1        0.0553
      8 N         139.9545  141.3575  171.1047 N.pl3   1  UNL1       -0.3563
      9 C         140.4295  142.6343  168.8924 C.ar    1  UNL1        0.0709
     10 CL        140.8647  143.8351  169.6789 Cl      1  UNL1       -0.0810
     11 C         140.4493  142.6723  167.3931 C.ar    1  UNL1        0.0202
     12 C         140.0140  141.4715  166.6066 C.ar    1  UNL1        0.0882
     13 H         139.6557  140.5444  171.5726 H       1  UNL1        0.1424
     14 H         140.2401  142.1456  171.6209 H       1  UNL1        0.1424
     15 C         137.7579  138.4499  166.7470 C.3     1  UNL1        0.2525
     16 O         139.1237  139.0319  166.5329 O.3     1  UNL1       -0.4712
     17 C         138.7979  141.2753  162.8339 C.3     1  UNL1        0.1017
     18 C         138.3079  142.4930  162.1080 C.3     1  UNL1        0.0394
     19 C         138.3278  142.5310  160.6086 C.3     1  UNL1        0.0739
     20 N         138.8376  141.3513  159.8351 N.3     1  UNL1       -0.2705
     21 C         139.3276  140.1335  160.5611 C.3     1  UNL1        0.1037
     22 C         139.3078  140.0955  162.0604 C.3     1  UNL1        0.1490
     23 O         139.7978  138.8777  162.7863 O.3     1  UNL1       -0.3505
     24 C         138.8724  137.7205  163.0193 C.3     1  UNL1        0.1741
     25 C         138.8574  141.3893  158.3358 C.3     1  UNL1        0.0742
     26 C         137.6045  141.7125  157.5771 C.3     1  UNL1        0.0418
     27 C         137.1909  140.8601  156.4141 C.3     1  UNL1        0.1075
     28 N         135.7652  140.8680  155.9479 N.ar    1  UNL1       -0.3249
     29 C         134.6012  140.2453  156.6601 C.ar    1  UNL1        0.0760
     30 C         133.3698  140.4925  155.8400 C.ar    1  UNL1        0.0202
     31 C         133.7728  141.2680  154.6209 C.ar    1  UNL1        0.0202
     32 C         135.2533  141.5001  154.6875 C.ar    1  UNL1        0.0760
@<TRIPOS>BOND
     1    15    16    1
     2    16     5    1
     3     5     6   ar
     4     6     7   ar
     5     7     8    1
     6     7     9   ar
     7     9    10    1
     8     9    11   ar
     9    11    12   ar
    10    12     1    1
    11     1     2    2
    12     1     3   am
    13    17     3    1
    14    17    18    1
    15    18    19    1
    16    19    20    1
    17    20    25    1
    18    25    26    1
    19    26    27    1
    20    27    28    1
    21    28    29   ar
    22    29    30   ar
    23    30    31   ar
    24    31    32   ar
    25    20    21    1
    26    21    22    1
    27    22    23    1
    28    23    24    1
    29    12     5   ar
    30    22    17    1
    31    32    28   ar
    32     8    13    1
    33     8    14    1
    34     3     4    1
