@<TRIPOS>MOLECULE
*****
 33 38 0 0 0
SMALL
GASTEIGER

@<TRIPOS>ATOM
      1 C         142.5783  136.7539  157.7748 C.3     1  UNL1        0.1161
      2 C         143.2943  135.4514  157.5725 C.3     1  UNL1        0.0510
      3 C         142.9373  134.5718  156.4111 C.2     1  UNL1       -0.0044
      4 C         141.8643  134.9947  155.4520 C.2     1  UNL1        0.0689
      5 N         141.7299  133.9273  154.4068 N.2     1  UNL1       -0.2526
      6 C         142.7197  132.8446  154.7200 C.2     1  UNL1        0.0627
      7 C         143.0380  131.5475  154.0372 C.3     1  UNL1        0.0717
      8 C         144.1024  130.6488  154.5931 C.2     1  UNL1       -0.0198
      9 C         144.8487  131.0471  155.8319 C.2     1  UNL1       -0.0042
     10 C         144.5304  132.3442  156.5146 C.2     1  UNL1        0.0006
     11 C         143.4660  133.2430  155.9587 C.2     1  UNL1        0.0111
     12 C         141.1484  136.2973  155.6543 C.3     1  UNL1        0.0949
     13 N         141.5054  137.1768  156.8157 N.3     1  UNL1       -0.2887
     14 H         140.6538  137.3019  157.3630 H       1  UNL1        0.1239
     15 C         143.2645  138.4496  161.1982 C.ar    1  UNL1        0.0947
     16 C         143.7050  139.5242  160.2489 C.ar    1  UNL1        0.1187
     17 N         143.5016  139.0198  158.8510 N.ar    1  UNL1       -0.2282
     18 C         142.9354  137.6335  158.9363 C.ar    1  UNL1        0.1318
     19 N         142.7888  137.2810  160.3869 N.ar    1  UNL1       -0.3385
     20 H         142.4415  136.4318  160.7438 H       1  UNL1        0.1672
     21 F         143.3842  138.7690  167.1885 F       1  UNL1       -0.2025
     22 C         143.3543  138.6891  165.6909 C.ar    1  UNL1        0.1592
     23 C         144.4746  139.2780  164.8859 C.ar    1  UNL1        0.0328
     24 C         144.4447  139.1982  163.3883 C.ar    1  UNL1        0.0230
     25 C         143.2944  138.5294  162.6958 C.ar    1  UNL1        0.0986
     26 N         142.1741  137.9405  163.5007 N.ar    1  UNL1       -0.2400
     27 C         142.2040  138.0204  164.9983 C.ar    1  UNL1        0.1284
     28 C         140.0754  136.7202  154.6952 C.3     1  UNL1        0.0252
     29 C         138.7377  137.1593  155.2124 C.3     1  UNL1        0.0339
     30 C         137.6648  137.5823  154.2532 C.3     1  UNL1        0.1422
     31 O         137.9296  137.5661  152.7769 O.3     1  UNL1       -0.3538
     32 C         139.2674  137.1269  152.2597 C.3     1  UNL1        0.1422
     33 C         140.3402  136.7040  153.2188 C.3     1  UNL1        0.0339
@<TRIPOS>BOND
     1    21    22    1
     2    22    23   ar
     3    23    24   ar
     4    24    25   ar
     5    25    15    1
     6    15    16   ar
     7    16    17   ar
     8    17    18   ar
     9     1    18    1
    10     1     2    1
    11     2     3    1
    12     3     4    2
    13     4     5    1
    14     5     6    2
    15     6     7    1
    16     7     8    1
    17     8     9    2
    18     9    10    1
    19    10    11    2
    20     4    12    1
    21    12    28    1
    22    28    29    1
    23    29    30    1
    24    30    31    1
    25    31    32    1
    26    32    33    1
    27    12    13    1
    28    18    19   ar
    29    25    26   ar
    30    26    27   ar
    31    27    22   ar
    32    19    15   ar
    33    13     1    1
    34    11     3    1
    35    33    28    1
    36    11     6    1
    37    13    14    1
    38    19    20    1
@<TRIPOS>MOLECULE
*****
 33 38 0 0 0
SMALL
GASTEIGER

@<TRIPOS>ATOM
      1 C         142.1195  140.0054  160.5632 C.3     1  UNL1        0.1161
      2 C         142.5740  139.3581  161.8377 C.3     1  UNL1        0.0510
      3 C         142.2570  139.9964  163.1576 C.2     1  UNL1       -0.0044
      4 C         141.4853  141.2819  163.2029 C.2     1  UNL1        0.0689
      5 N         141.3224  141.6741  164.6415 N.2     1  UNL1       -0.2526
      6 C         141.9933  140.6311  165.4853 C.2     1  UNL1        0.0627
      7 C         142.1529  140.4916  166.9702 C.3     1  UNL1        0.0717
      8 C         142.8902  139.3151  167.5380 C.2     1  UNL1       -0.0198
      9 C         143.4678  138.2782  166.6208 C.2     1  UNL1       -0.0042
     10 C         143.3082  138.4177  165.1359 C.2     1  UNL1        0.0006
     11 C         142.5710  139.5942  164.5681 C.2     1  UNL1        0.0111
     12 C         141.0308  141.9291  161.9284 C.3     1  UNL1        0.0949
     13 N         141.3478  141.2909  160.6085 N.3     1  UNL1       -0.2887
     14 H         141.8822  141.9741  160.0718 H       1  UNL1        0.1239
     15 C         142.8208  137.7067  157.5153 C.ar    1  UNL1        0.0947
     16 C         143.0282  139.0630  156.9092 C.ar    1  UNL1        0.1187
     17 N         142.7907  140.0892  157.9771 N.ar    1  UNL1       -0.2282
     18 C         142.4366  139.3671  159.2432 C.ar    1  UNL1        0.1318
     19 N         142.4552  137.8946  158.9579 N.ar    1  UNL1       -0.3385
     20 H         142.2614  137.1775  159.6039 H       1  UNL1        0.1672
     21 F         143.3593  132.4521  154.6693 F       1  UNL1       -0.2025
     22 C         143.2247  133.7658  155.3808 C.ar    1  UNL1        0.1592
     23 C         142.9187  135.0117  154.6036 C.ar    1  UNL1        0.0328
     24 C         142.7841  136.3253  155.3151 C.ar    1  UNL1        0.0230
     25 C         142.9555  136.3930  156.8038 C.ar    1  UNL1        0.0986
     26 N         143.2615  135.1471  157.5809 N.ar    1  UNL1       -0.2400
     27 C         143.3961  133.8335  156.8694 C.ar    1  UNL1        0.1284
     28 C         140.2591  143.2146  161.9737 C.3     1  UNL1        0.0252
     29 C         140.8026  144.4397  161.3003 C.3     1  UNL1        0.0339
     30 C         140.0309  145.7253  161.3456 C.3     1  UNL1        0.1422
     31 O         138.7157  145.7856  162.0644 O.3     1  UNL1       -0.3538
     32 C         138.1722  144.5604  162.7378 C.3     1  UNL1        0.1422
     33 C         138.9439  143.2750  162.6925 C.3     1  UNL1        0.0339
@<TRIPOS>BOND
     1    21    22    1
     2    22    23   ar
     3    23    24   ar
     4    24    25   ar
     5    25    15    1
     6    15    16   ar
     7    16    17   ar
     8    17    18   ar
     9     1    18    1
    10     1     2    1
    11     2     3    1
    12     3     4    2
    13     4     5    1
    14     5     6    2
    15     6     7    1
    16     7     8    1
    17     8     9    2
    18     9    10    1
    19    10    11    2
    20     4    12    1
    21    12    28    1
    22    28    29    1
    23    29    30    1
    24    30    31    1
    25    31    32    1
    26    32    33    1
    27    12    13    1
    28    18    19   ar
    29    25    26   ar
    30    26    27   ar
    31    27    22   ar
    32    19    15   ar
    33    13     1    1
    34    11     3    1
    35    33    28    1
    36    11     6    1
    37    13    14    1
    38    19    20    1
@<TRIPOS>MOLECULE
*****
 33 38 0 0 0
SMALL
GASTEIGER

@<TRIPOS>ATOM
      1 C         143.3630  140.2375  158.0983 C.3     1  UNL1        0.1161
      2 C         143.9136  140.2285  159.4936 C.3     1  UNL1        0.0510
      3 C         143.7946  141.4509  160.3547 C.2     1  UNL1       -0.0044
      4 C         143.1251  142.6823  159.8205 C.2     1  UNL1        0.0689
      5 N         143.1551  143.7291  160.8944 N.2     1  UNL1       -0.2526
      6 C         143.8432  143.1447  162.0923 C.2     1  UNL1        0.0627
      7 C         144.1610  143.7128  163.4437 C.3     1  UNL1        0.0717
      8 C         144.8739  142.8728  164.4615 C.2     1  UNL1       -0.0198
      9 C         145.2691  141.4647  164.1280 C.2     1  UNL1       -0.0042
     10 C         144.9514  140.8967  162.7766 C.2     1  UNL1        0.0006
     11 C         144.2384  141.7367  161.7588 C.2     1  UNL1        0.0111
     12 C         142.5745  142.6913  158.4252 C.3     1  UNL1        0.0949
     13 N         142.6935  141.4689  157.5641 N.3     1  UNL1       -0.2887
     14 H         143.2097  141.7460  156.7291 H       1  UNL1        0.1239
     15 C         143.3022  136.7326  156.4317 C.ar    1  UNL1        0.0947
     16 C         144.0280  137.5350  155.3928 C.ar    1  UNL1        0.1187
     17 N         144.1392  138.9456  155.8906 N.ar    1  UNL1       -0.2282
     18 C         143.4820  139.0150  157.2372 C.ar    1  UNL1        0.1318
     19 N         142.9648  137.6473  157.5716 N.ar    1  UNL1       -0.3385
     20 H         142.4876  137.3944  158.3948 H       1  UNL1        0.1672
     21 F         141.9806  130.8900  156.0880 F       1  UNL1       -0.2025
     22 C         142.3110  132.3507  156.1739 C.ar    1  UNL1        0.1592
     23 C         141.5290  133.3452  155.3681 C.ar    1  UNL1        0.0328
     24 C         141.8594  134.8058  155.4540 C.ar    1  UNL1        0.0230
     25 C         142.9718  135.2719  156.3458 C.ar    1  UNL1        0.0986
     26 N         143.7538  134.2774  157.1516 N.ar    1  UNL1       -0.2400
     27 C         143.4234  132.8168  157.0657 C.ar    1  UNL1        0.1284
     28 C         141.9050  143.9227  157.8909 C.3     1  UNL1        0.0252
     29 C         142.3523  144.5137  156.5869 C.3     1  UNL1        0.0339
     30 C         141.6827  145.7452  156.0527 C.3     1  UNL1        0.1422
     31 O         140.5659  146.3855  156.8226 O.3     1  UNL1       -0.3538
     32 C         140.1187  145.7945  158.1267 C.3     1  UNL1        0.1422
     33 C         140.7882  144.5631  158.6608 C.3     1  UNL1        0.0339
@<TRIPOS>BOND
     1    21    22    1
     2    22    23   ar
     3    23    24   ar
     4    24    25   ar
     5    25    15    1
     6    15    16   ar
     7    16    17   ar
     8    17    18   ar
     9     1    18    1
    10     1     2    1
    11     2     3    1
    12     3     4    2
    13     4     5    1
    14     5     6    2
    15     6     7    1
    16     7     8    1
    17     8     9    2
    18     9    10    1
    19    10    11    2
    20     4    12    1
    21    12    28    1
    22    28    29    1
    23    29    30    1
    24    30    31    1
    25    31    32    1
    26    32    33    1
    27    12    13    1
    28    18    19   ar
    29    25    26   ar
    30    26    27   ar
    31    27    22   ar
    32    19    15   ar
    33    13     1    1
    34    11     3    1
    35    33    28    1
    36    11     6    1
    37    13    14    1
    38    19    20    1
@<TRIPOS>MOLECULE
*****
 33 38 0 0 0
SMALL
GASTEIGER

@<TRIPOS>ATOM
      1 C         143.1287  139.3117  158.0467 C.3     1  UNL1        0.1161
      2 C         142.3341  140.4847  157.5541 C.3     1  UNL1        0.0510
      3 C         142.1709  141.6975  158.4217 C.2     1  UNL1       -0.0044
      4 C         142.8022  141.7371  159.7817 C.2     1  UNL1        0.0689
      5 N         142.4713  143.0594  160.4079 N.2     1  UNL1       -0.2526
      6 C         141.6355  143.8369  159.4348 C.2     1  UNL1        0.0627
      7 C         141.0196  145.2026  159.5080 C.3     1  UNL1        0.0717
      8 C         140.2180  145.7266  158.3536 C.2     1  UNL1       -0.0198
      9 C         140.0323  144.8849  157.1260 C.2     1  UNL1       -0.0042
     10 C         140.6482  143.5192  157.0528 C.2     1  UNL1        0.0006
     11 C         141.4498  142.9952  158.2072 C.2     1  UNL1        0.0111
     12 C         143.5968  140.5640  160.2743 C.3     1  UNL1        0.0949
     13 N         143.7600  139.3513  159.4068 N.3     1  UNL1       -0.2887
     14 H         143.3817  138.5618  159.9301 H       1  UNL1        0.1239
     15 C         143.1274  135.8335  156.3239 C.ar    1  UNL1        0.0947
     16 C         143.9588  136.6320  155.3642 C.ar    1  UNL1        0.1187
     17 N         144.0605  138.0321  155.8927 N.ar    1  UNL1       -0.2282
     18 C         143.2920  138.0989  157.1791 C.ar    1  UNL1        0.1318
     19 N         142.7153  136.7401  157.4456 N.ar    1  UNL1       -0.3385
     20 H         142.1632  136.4877  158.2207 H       1  UNL1        0.1672
     21 F         141.7007  130.0317  155.7731 F       1  UNL1       -0.2025
     22 C         142.0574  131.4822  155.9108 C.ar    1  UNL1        0.1592
     23 C         141.3316  132.5133  155.0985 C.ar    1  UNL1        0.0328
     24 C         141.6883  133.9638  155.2362 C.ar    1  UNL1        0.0230
     25 C         142.7707  134.3830  156.1862 C.ar    1  UNL1        0.0986
     26 N         143.4965  133.3518  156.9986 N.ar    1  UNL1       -0.2400
     27 C         143.1398  131.9014  156.8608 C.ar    1  UNL1        0.1284
     28 C         144.2281  140.6037  161.6344 C.3     1  UNL1        0.0252
     29 C         145.0469  141.7908  162.0468 C.3     1  UNL1        0.0339
     30 C         145.6782  141.8304  163.4070 C.3     1  UNL1        0.1422
     31 O         145.4907  140.6828  164.3546 O.3     1  UNL1       -0.3538
     32 C         144.6719  139.4957  163.9421 C.3     1  UNL1        0.1422
     33 C         144.0406  139.4561  162.5821 C.3     1  UNL1        0.0339
@<TRIPOS>BOND
     1    21    22    1
     2    22    23   ar
     3    23    24   ar
     4    24    25   ar
     5    25    15    1
     6    15    16   ar
     7    16    17   ar
     8    17    18   ar
     9     1    18    1
    10     1     2    1
    11     2     3    1
    12     3     4    2
    13     4     5    1
    14     5     6    2
    15     6     7    1
    16     7     8    1
    17     8     9    2
    18     9    10    1
    19    10    11    2
    20     4    12    1
    21    12    28    1
    22    28    29    1
    23    29    30    1
    24    30    31    1
    25    31    32    1
    26    32    33    1
    27    12    13    1
    28    18    19   ar
    29    25    26   ar
    30    26    27   ar
    31    27    22   ar
    32    19    15   ar
    33    13     1    1
    34    11     3    1
    35    33    28    1
    36    11     6    1
    37    13    14    1
    38    19    20    1
@<TRIPOS>MOLECULE
*****
 33 38 0 0 0
SMALL
GASTEIGER

@<TRIPOS>ATOM
      1 C         139.6246  140.7738  160.5954 C.3     1  UNL1        0.1161
      2 C         140.6703  141.8138  160.8691 C.3     1  UNL1        0.0510
      3 C         141.1764  142.0189  162.2662 C.2     1  UNL1       -0.0044
      4 C         140.6369  141.1839  163.3894 C.2     1  UNL1        0.0689
      5 N         141.3223  141.6096  164.6540 N.2     1  UNL1       -0.2526
      6 C         142.2854  142.7076  164.3122 C.2     1  UNL1        0.0627
      7 C         143.2329  143.5098  165.1541 C.3     1  UNL1        0.0717
      8 C         144.0901  144.5649  164.5203 C.2     1  UNL1       -0.0198
      9 C         144.0000  144.8178  163.0445 C.2     1  UNL1       -0.0042
     10 C         143.0525  144.0157  162.2026 C.2     1  UNL1        0.0006
     11 C         142.1953  142.9606  162.8364 C.2     1  UNL1        0.0111
     12 C         139.5912  140.1439  163.1157 C.3     1  UNL1        0.0949
     13 N         139.0851  139.9388  161.7187 N.3     1  UNL1       -0.2887
     14 H         138.0775  140.0957  161.7445 H       1  UNL1        0.1239
     15 C         137.6987  140.5980  157.2301 C.ar    1  UNL1        0.0947
     16 C         138.9803  139.9085  156.8669 C.ar    1  UNL1        0.1187
     17 N         139.8578  139.8904  158.0833 N.ar    1  UNL1       -0.2282
     18 C         139.1184  140.5687  159.1983 C.ar    1  UNL1        0.1318
     19 N         137.7840  141.0060  158.6710 N.ar    1  UNL1       -0.3385
     20 H         137.0867  141.4780  159.1811 H       1  UNL1        0.1672
     21 F         133.0472  141.5557  153.5630 F       1  UNL1       -0.2025
     22 C         134.2101  141.3163  154.4798 C.ar    1  UNL1        0.1592
     23 C         135.5649  141.8564  154.1295 C.ar    1  UNL1        0.0328
     24 C         136.7277  141.6170  155.0462 C.ar    1  UNL1        0.0230
     25 C         136.5357  140.8374  156.3133 C.ar    1  UNL1        0.0986
     26 N         135.1810  140.2973  156.6636 N.ar    1  UNL1       -0.2400
     27 C         134.0181  140.5367  155.7469 C.ar    1  UNL1        0.1284
     28 C         139.0517  139.3090  164.2390 C.3     1  UNL1        0.0252
     29 C         139.1801  137.8153  164.1919 C.3     1  UNL1        0.0339
     30 C         138.6405  136.9804  165.3152 C.3     1  UNL1        0.1422
     31 O         137.9726  137.6392  166.4856 O.3     1  UNL1       -0.3538
     32 C         137.8442  139.1330  166.5327 C.3     1  UNL1        0.1422
     33 C         138.3837  139.9678  165.4094 C.3     1  UNL1        0.0339
@<TRIPOS>BOND
     1    21    22    1
     2    22    23   ar
     3    23    24   ar
     4    24    25   ar
     5    25    15    1
     6    15    16   ar
     7    16    17   ar
     8    17    18   ar
     9     1    18    1
    10     1     2    1
    11     2     3    1
    12     3     4    2
    13     4     5    1
    14     5     6    2
    15     6     7    1
    16     7     8    1
    17     8     9    2
    18     9    10    1
    19    10    11    2
    20     4    12    1
    21    12    28    1
    22    28    29    1
    23    29    30    1
    24    30    31    1
    25    31    32    1
    26    32    33    1
    27    12    13    1
    28    18    19   ar
    29    25    26   ar
    30    26    27   ar
    31    27    22   ar
    32    19    15   ar
    33    13     1    1
    34    11     3    1
    35    33    28    1
    36    11     6    1
    37    13    14    1
    38    19    20    1
@<TRIPOS>MOLECULE
*****
 33 38 0 0 0
SMALL
GASTEIGER

@<TRIPOS>ATOM
      1 C         141.4232  139.5930  158.9591 C.3     1  UNL1        0.1161
      2 C         142.4932  140.5385  158.4996 C.3     1  UNL1        0.0510
      3 C         143.4610  140.1155  157.4345 C.2     1  UNL1       -0.0044
      4 C         143.3588  138.7471  156.8289 C.2     1  UNL1        0.0689
      5 N         144.4462  138.6111  155.8046 N.2     1  UNL1       -0.2526
      6 C         145.2204  139.8956  155.7772 C.2     1  UNL1        0.0627
      7 C         146.4012  140.3386  154.9652 C.3     1  UNL1        0.0717
      8 C         146.9730  141.7115  155.1604 C.2     1  UNL1       -0.0198
      9 C         146.3642  142.6413  156.1678 C.2     1  UNL1       -0.0042
     10 C         145.1834  142.1982  156.9799 C.2     1  UNL1        0.0006
     11 C         144.6116  140.8254  156.7846 C.2     1  UNL1        0.0111
     12 C         142.2888  137.8015  157.2884 C.3     1  UNL1        0.0949
     13 N         141.3210  138.2245  158.3535 N.3     1  UNL1       -0.2887
     14 H         141.4144  137.5562  159.1184 H       1  UNL1        0.1239
     15 C         139.3939  141.2642  161.8147 C.ar    1  UNL1        0.0947
     16 C         138.5385  140.0698  161.5119 C.ar    1  UNL1        0.1187
     17 N         139.1946  139.2983  160.4054 N.ar    1  UNL1       -0.2282
     18 C         140.4554  140.0160  160.0243 C.ar    1  UNL1        0.1318
     19 N         140.5786  141.2310  160.8952 N.ar    1  UNL1       -0.3385
     20 H         141.3088  141.8907  160.8682 H       1  UNL1        0.1672
     21 F         138.2732  145.4416  165.9733 F       1  UNL1       -0.2025
     22 C         138.5534  144.3972  164.9336 C.ar    1  UNL1        0.1592
     23 C         137.6541  144.2668  163.7402 C.ar    1  UNL1        0.0328
     24 C         137.9343  143.2225  162.7006 C.ar    1  UNL1        0.0230
     25 C         139.1137  142.3086  162.8544 C.ar    1  UNL1        0.0986
     26 N         140.0130  142.4390  164.0478 N.ar    1  UNL1       -0.2400
     27 C         139.7328  143.4833  165.0874 C.ar    1  UNL1        0.1284
     28 C         142.1866  136.4331  156.6827 C.3     1  UNL1        0.0252
     29 C         143.0956  135.3358  157.1512 C.3     1  UNL1        0.0339
     30 C         142.9933  133.9673  156.5455 C.3     1  UNL1        0.1422
     31 O         141.9820  133.6961  155.4714 O.3     1  UNL1       -0.3538
     32 C         141.0729  134.7935  155.0029 C.3     1  UNL1        0.1422
     33 C         141.1752  136.1619  155.6086 C.3     1  UNL1        0.0339
@<TRIPOS>BOND
     1    21    22    1
     2    22    23   ar
     3    23    24   ar
     4    24    25   ar
     5    25    15    1
     6    15    16   ar
     7    16    17   ar
     8    17    18   ar
     9     1    18    1
    10     1     2    1
    11     2     3    1
    12     3     4    2
    13     4     5    1
    14     5     6    2
    15     6     7    1
    16     7     8    1
    17     8     9    2
    18     9    10    1
    19    10    11    2
    20     4    12    1
    21    12    28    1
    22    28    29    1
    23    29    30    1
    24    30    31    1
    25    31    32    1
    26    32    33    1
    27    12    13    1
    28    18    19   ar
    29    25    26   ar
    30    26    27   ar
    31    27    22   ar
    32    19    15   ar
    33    13     1    1
    34    11     3    1
    35    33    28    1
    36    11     6    1
    37    13    14    1
    38    19    20    1
@<TRIPOS>MOLECULE
*****
 33 38 0 0 0
SMALL
GASTEIGER

@<TRIPOS>ATOM
      1 C         140.4716  139.7992  160.7953 C.3     1  UNL1        0.1161
      2 C         139.7584  139.1721  161.9564 C.3     1  UNL1        0.0510
      3 C         139.8893  139.7670  163.3271 C.2     1  UNL1       -0.0044
      4 C         140.7335  140.9891  163.5367 C.2     1  UNL1        0.0689
      5 N         140.6747  141.3490  164.9917 N.2     1  UNL1       -0.2526
      6 C         139.7941  140.3495  165.6813 C.2     1  UNL1        0.0627
      7 C         139.3715  140.2033  167.1131 C.3     1  UNL1        0.0717
      8 C         138.4636  139.0794  167.5160 C.2     1  UNL1       -0.0198
      9 C         137.9783  138.1016  166.4872 C.2     1  UNL1       -0.0042
     10 C         138.4008  138.2478  165.0555 C.2     1  UNL1        0.0006
     11 C         139.3087  139.3717  164.6525 C.2     1  UNL1        0.0111
     12 C         141.4468  141.6162  162.3757 C.3     1  UNL1        0.0949
     13 N         141.3158  141.0212  161.0050 N.3     1  UNL1       -0.2887
     14 H         142.2585  140.7846  160.6954 H       1  UNL1        0.1239
     15 C         140.7040  137.8185  157.4654 C.ar    1  UNL1        0.0947
     16 C         139.5744  138.7586  157.1652 C.ar    1  UNL1        0.1187
     17 N         139.3498  139.6150  158.3761 N.ar    1  UNL1       -0.2282
     18 C         140.3407  139.2042  159.4246 C.ar    1  UNL1        0.1318
     19 N         141.1776  138.0939  158.8618 N.ar    1  UNL1       -0.3385
     20 H         141.9093  137.6277  159.3272 H       1  UNL1        0.1672
     21 F         142.9363  133.6826  153.7356 F       1  UNL1       -0.2025
     22 C         142.3783  134.7166  154.6681 C.ar    1  UNL1        0.1592
     23 C         143.1909  135.1892  155.8369 C.ar    1  UNL1        0.0328
     24 C         142.6328  136.2231  156.7693 C.ar    1  UNL1        0.0230
     25 C         141.2621  136.7845  156.5329 C.ar    1  UNL1        0.0986
     26 N         140.4494  136.3119  155.3641 N.ar    1  UNL1       -0.2400
     27 C         141.0075  135.2780  154.4317 C.ar    1  UNL1        0.1284
     28 C         142.2910  142.8382  162.5853 C.3     1  UNL1        0.0252
     29 C         141.6772  144.0865  163.1465 C.3     1  UNL1        0.0339
     30 C         142.5215  145.3085  163.3561 C.3     1  UNL1        0.1422
     31 O         143.9795  145.2822  163.0045 O.3     1  UNL1       -0.3538
     32 C         144.5932  144.0339  162.4433 C.3     1  UNL1        0.1422
     33 C         143.7490  142.8119  162.2337 C.3     1  UNL1        0.0339
@<TRIPOS>BOND
     1    21    22    1
     2    22    23   ar
     3    23    24   ar
     4    24    25   ar
     5    25    15    1
     6    15    16   ar
     7    16    17   ar
     8    17    18   ar
     9     1    18    1
    10     1     2    1
    11     2     3    1
    12     3     4    2
    13     4     5    1
    14     5     6    2
    15     6     7    1
    16     7     8    1
    17     8     9    2
    18     9    10    1
    19    10    11    2
    20     4    12    1
    21    12    28    1
    22    28    29    1
    23    29    30    1
    24    30    31    1
    25    31    32    1
    26    32    33    1
    27    12    13    1
    28    18    19   ar
    29    25    26   ar
    30    26    27   ar
    31    27    22   ar
    32    19    15   ar
    33    13     1    1
    34    11     3    1
    35    33    28    1
    36    11     6    1
    37    13    14    1
    38    19    20    1
@<TRIPOS>MOLECULE
*****
 33 38 0 0 0
SMALL
GASTEIGER

@<TRIPOS>ATOM
      1 C         140.2906  143.2480  163.8312 C.3     1  UNL1        0.1161
      2 C         140.2601  143.6675  165.2711 C.3     1  UNL1        0.0510
      3 C         140.3560  142.6352  166.3552 C.2     1  UNL1       -0.0044
      4 C         140.4825  141.1835  165.9994 C.2     1  UNL1        0.0689
      5 N         140.5576  140.3985  167.2753 N.2     1  UNL1       -0.2526
      6 C         140.4775  141.3649  168.4197 C.2     1  UNL1        0.0627
      7 C         140.5018  141.1648  169.9060 C.3     1  UNL1        0.0717
      8 C         140.4017  142.3470  170.8237 C.2     1  UNL1       -0.0198
      9 C         140.2771  143.7295  170.2550 C.2     1  UNL1       -0.0042
     10 C         140.2527  143.9296  168.7686 C.2     1  UNL1        0.0006
     11 C         140.3529  142.7473  167.8510 C.2     1  UNL1        0.0111
     12 C         140.5130  140.7641  164.5595 C.3     1  UNL1        0.0949
     13 N         140.4171  141.7964  163.4754 N.3     1  UNL1       -0.2887
     14 H         139.5994  141.5585  162.9139 H       1  UNL1        0.1239
     15 C         140.3192  145.3749  160.5846 C.ar    1  UNL1        0.0947
     16 C         139.7746  146.3627  161.5734 C.ar    1  UNL1        0.1187
     17 N         139.6977  145.6862  162.9099 N.ar    1  UNL1       -0.2282
     18 C         140.1946  144.2804  162.7471 C.ar    1  UNL1        0.1318
     19 N         140.5787  144.0879  161.3100 N.ar    1  UNL1       -0.3385
     20 H         140.9380  143.2620  160.9127 H       1  UNL1        0.1672
     21 F         141.2889  146.3928  154.7516 F       1  UNL1       -0.2025
     22 C         141.0465  146.1383  156.2098 C.ar    1  UNL1        0.1592
     23 C         142.0920  145.4481  157.0347 C.ar    1  UNL1        0.0328
     24 C         141.8496  145.1936  158.4929 C.ar    1  UNL1        0.0230
     25 C         140.5616  145.6294  159.1263 C.ar    1  UNL1        0.0986
     26 N         139.5160  146.3196  158.3014 N.ar    1  UNL1       -0.2400
     27 C         139.7585  146.5741  156.8432 C.ar    1  UNL1        0.1284
     28 C         140.6395  139.3124  164.2037 C.3     1  UNL1        0.0252
     29 C         139.7153  138.7053  163.1903 C.3     1  UNL1        0.0339
     30 C         139.8418  137.2536  162.8345 C.3     1  UNL1        0.1422
     31 O         140.8926  136.4090  163.4922 O.3     1  UNL1       -0.3538
     32 C         141.8169  137.0161  164.5057 C.3     1  UNL1        0.1422
     33 C         141.6904  138.4678  164.8614 C.3     1  UNL1        0.0339
@<TRIPOS>BOND
     1    21    22    1
     2    22    23   ar
     3    23    24   ar
     4    24    25   ar
     5    25    15    1
     6    15    16   ar
     7    16    17   ar
     8    17    18   ar
     9     1    18    1
    10     1     2    1
    11     2     3    1
    12     3     4    2
    13     4     5    1
    14     5     6    2
    15     6     7    1
    16     7     8    1
    17     8     9    2
    18     9    10    1
    19    10    11    2
    20     4    12    1
    21    12    28    1
    22    28    29    1
    23    29    30    1
    24    30    31    1
    25    31    32    1
    26    32    33    1
    27    12    13    1
    28    18    19   ar
    29    25    26   ar
    30    26    27   ar
    31    27    22   ar
    32    19    15   ar
    33    13     1    1
    34    11     3    1
    35    33    28    1
    36    11     6    1
    37    13    14    1
    38    19    20    1
@<TRIPOS>MOLECULE
*****
 33 38 0 0 0
SMALL
GASTEIGER

@<TRIPOS>ATOM
      1 C         140.1955  144.2571  158.4349 C.3     1  UNL1        0.1161
      2 C         139.2632  143.1632  158.0056 C.3     1  UNL1        0.0510
      3 C         138.4169  143.3373  156.7795 C.2     1  UNL1       -0.0044
      4 C         138.5028  144.6053  155.9827 C.2     1  UNL1        0.0689
      5 N         137.5527  144.4921  154.8275 N.2     1  UNL1       -0.2526
      6 C         136.8796  143.1542  154.9103 C.2     1  UNL1        0.0627
      7 C         135.8493  142.4935  154.0431 C.3     1  UNL1        0.0717
      8 C         135.3532  141.1193  154.3823 C.2     1  UNL1       -0.0198
      9 C         135.8872  140.4056  155.5887 C.2     1  UNL1       -0.0042
     10 C         136.9175  141.0662  156.4559 C.2     1  UNL1        0.0006
     11 C         137.4137  142.4405  156.1168 C.2     1  UNL1        0.0111
     12 C         139.4352  145.6992  156.4120 C.3     1  UNL1        0.0949
     13 N         140.2815  145.5250  157.6381 N.3     1  UNL1       -0.2887
     14 H         140.0424  146.2878  158.2717 H       1  UNL1        0.1239
     15 C         142.4399  143.0905  161.3789 C.ar    1  UNL1        0.0947
     16 C         142.2487  144.5393  161.7168 C.ar    1  UNL1        0.1187
     17 N         141.3846  145.1527  160.6551 N.ar    1  UNL1       -0.2282
     18 C         141.0419  144.0829  159.6611 C.ar    1  UNL1        0.1318
     19 N         141.6941  142.8084  160.1084 N.ar    1  UNL1       -0.3385
     20 H         141.6418  141.9393  159.6488 H       1  UNL1        0.1672
     21 F         145.6285  139.1202  164.5523 F       1  UNL1       -0.2025
     22 C         144.8314  140.1128  163.7589 C.ar    1  UNL1        0.1592
     23 C         145.4412  141.4279  163.3735 C.ar    1  UNL1        0.0328
     24 C         144.6441  142.4204  162.5802 C.ar    1  UNL1        0.0230
     25 C         143.2371  142.0979  162.1723 C.ar    1  UNL1        0.0986
     26 N         142.6273  140.7828  162.5577 N.ar    1  UNL1       -0.2400
     27 C         143.4244  139.7902  163.3510 C.ar    1  UNL1        0.1284
     28 C         139.5211  146.9671  155.6152 C.3     1  UNL1        0.0252
     29 C         138.8376  148.2089  156.1057 C.3     1  UNL1        0.0339
     30 C         138.9236  149.4769  155.3089 C.3     1  UNL1        0.1422
     31 O         139.6931  149.5030  154.0216 O.3     1  UNL1       -0.3538
     32 C         140.3767  148.2611  153.5311 C.3     1  UNL1        0.1422
     33 C         140.2907  146.9932  154.3279 C.3     1  UNL1        0.0339
@<TRIPOS>BOND
     1    21    22    1
     2    22    23   ar
     3    23    24   ar
     4    24    25   ar
     5    25    15    1
     6    15    16   ar
     7    16    17   ar
     8    17    18   ar
     9     1    18    1
    10     1     2    1
    11     2     3    1
    12     3     4    2
    13     4     5    1
    14     5     6    2
    15     6     7    1
    16     7     8    1
    17     8     9    2
    18     9    10    1
    19    10    11    2
    20     4    12    1
    21    12    28    1
    22    28    29    1
    23    29    30    1
    24    30    31    1
    25    31    32    1
    26    32    33    1
    27    12    13    1
    28    18    19   ar
    29    25    26   ar
    30    26    27   ar
    31    27    22   ar
    32    19    15   ar
    33    13     1    1
    34    11     3    1
    35    33    28    1
    36    11     6    1
    37    13    14    1
    38    19    20    1
