@<TRIPOS>MOLECULE
*****
 24 26 0 0 0
SMALL
GASTEIGER

@<TRIPOS>ATOM
      1 C         141.2401  144.3402  160.5822 C.ar    1  UNL1        0.1098
      2 C         142.2278  143.3239  161.0738 C.ar    1  UNL1        0.0891
      3 N         142.1773  142.8570  162.4984 N.ar    1  UNL1       -0.2900
      4 C         141.1390  143.4062  163.4313 C.ar    1  UNL1        0.1507
      5 N         141.0885  142.9393  164.8559 N.ar    1  UNL1       -0.2263
      6 C         140.0502  143.4885  165.7887 C.ar    1  UNL1        0.1005
      7 C         139.0625  144.5047  165.2971 C.ar    1  UNL1        0.0209
      8 C         139.1131  144.9717  163.8726 C.ar    1  UNL1        0.0078
      9 C         140.1513  144.4224  162.9397 C.ar    1  UNL1        0.0736
     10 C         140.2019  144.8894  161.5151 C.ar    1  UNL1        0.2043
     11 O         139.2142  145.9056  161.0234 O.2     1  UNL1       -0.2863
     12 C         143.1650  141.8408  162.9900 C.ar    1  UNL1        0.0654
     13 C         142.7885  140.3895  163.0349 C.ar    1  UNL1        0.0176
     14 C         143.7762  139.3733  163.5266 C.ar    1  UNL1        0.0015
     15 C         145.1405  139.8083  163.9733 C.ar    1  UNL1        0.0001
     16 C         145.5170  141.2596  163.9284 C.ar    1  UNL1        0.0015
     17 C         144.5293  142.2759  163.4367 C.ar    1  UNL1        0.0176
     18 N         140.0300  144.8840  158.3483 N.am    1  UNL1       -0.3024
     19 C         141.2907  144.8071  159.1576 C.2     1  UNL1        0.2504
     20 O         142.6019  145.1972  158.5423 O.2     1  UNL1       -0.2700
     21 H         139.1695  144.6280  158.7522 H       1  UNL1        0.1497
     22 C         140.5480  144.4191  155.8452 C.3     1  UNL1        0.0213
     23 C         140.0806  145.3509  156.9238 C.3     1  UNL1        0.0720
     24 C         139.6637  146.7497  156.5778 C.3     1  UNL1        0.0213
@<TRIPOS>BOND
     1    22    23    1
     2    23    24    1
     3    23    18    1
     4    18    19   am
     5    19    20    2
     6    19     1    1
     7     1     2   ar
     8     2     3   ar
     9     3    12    1
    10    12    13   ar
    11    13    14   ar
    12    14    15   ar
    13    15    16   ar
    14    16    17   ar
    15     3     4   ar
    16     4     5   ar
    17     5     6   ar
    18     6     7   ar
    19     7     8   ar
    20     8     9   ar
    21     9    10   ar
    22    10    11    2
    23    10     1   ar
    24    17    12   ar
    25     9     4   ar
    26    18    21    1
@<TRIPOS>MOLECULE
*****
 24 26 0 0 0
SMALL
GASTEIGER

@<TRIPOS>ATOM
      1 C         141.1293  142.3869  163.8373 C.ar    1  UNL1        0.1098
      2 C         141.6490  142.7385  165.1998 C.ar    1  UNL1        0.0891
      3 N         141.1273  142.0214  166.4095 N.ar    1  UNL1       -0.2900
      4 C         140.0860  140.9526  166.2568 C.ar    1  UNL1        0.1507
      5 N         139.5643  140.2354  167.4666 N.ar    1  UNL1       -0.2263
      6 C         138.5230  139.1667  167.3139 C.ar    1  UNL1        0.1005
      7 C         138.0033  138.8151  165.9514 C.ar    1  UNL1        0.0209
      8 C         138.5250  139.5322  164.7416 C.ar    1  UNL1        0.0078
      9 C         139.5663  140.6010  164.8944 C.ar    1  UNL1        0.0736
     10 C         140.0880  141.3182  163.6846 C.ar    1  UNL1        0.2043
     11 O         139.5683  140.9666  162.3221 O.2     1  UNL1       -0.2863
     12 C         141.6470  142.3730  167.7720 C.ar    1  UNL1        0.0654
     13 C         143.0419  141.9865  168.1654 C.ar    1  UNL1        0.0176
     14 C         143.5616  142.3381  169.5279 C.ar    1  UNL1        0.0015
     15 C         142.6863  143.0762  170.4969 C.ar    1  UNL1        0.0001
     16 C         141.2913  143.4628  170.1035 C.ar    1  UNL1        0.0015
     17 C         140.7717  143.1112  168.7411 C.ar    1  UNL1        0.0176
     18 N         141.7789  142.3771  161.3217 N.am    1  UNL1       -0.3024
     19 C         141.6510  143.1041  162.6275 C.2     1  UNL1        0.2504
     20 O         142.0448  144.5483  162.7236 O.2     1  UNL1       -0.2700
     21 H         141.5205  141.4292  161.2587 H       1  UNL1        0.1497
     22 C         143.7159  142.8784  159.6644 C.3     1  UNL1        0.0213
     23 C         142.3006  143.0942  160.1120 C.3     1  UNL1        0.0720
     24 C         141.4070  144.0272  159.3498 C.3     1  UNL1        0.0213
@<TRIPOS>BOND
     1    22    23    1
     2    23    24    1
     3    23    18    1
     4    18    19   am
     5    19    20    2
     6    19     1    1
     7     1     2   ar
     8     2     3   ar
     9     3    12    1
    10    12    13   ar
    11    13    14   ar
    12    14    15   ar
    13    15    16   ar
    14    16    17   ar
    15     3     4   ar
    16     4     5   ar
    17     5     6   ar
    18     6     7   ar
    19     7     8   ar
    20     8     9   ar
    21     9    10   ar
    22    10    11    2
    23    10     1   ar
    24    17    12   ar
    25     9     4   ar
    26    18    21    1
@<TRIPOS>MOLECULE
*****
 24 26 0 0 0
SMALL
GASTEIGER

@<TRIPOS>ATOM
      1 C         139.5045  140.0837  165.9458 C.ar    1  UNL1        0.1098
      2 C         139.7321  141.4476  165.3643 C.ar    1  UNL1        0.0891
      3 N         139.5500  141.6755  163.8930 N.ar    1  UNL1       -0.2900
      4 C         139.1402  140.5396  163.0031 C.ar    1  UNL1        0.1507
      5 N         138.9581  140.7676  161.5318 N.ar    1  UNL1       -0.2263
      6 C         138.5483  139.6317  160.6420 C.ar    1  UNL1        0.1005
      7 C         138.3206  138.2679  161.2234 C.ar    1  UNL1        0.0209
      8 C         138.5028  138.0399  162.6947 C.ar    1  UNL1        0.0078
      9 C         138.9125  139.1758  163.5846 C.ar    1  UNL1        0.0736
     10 C         139.0947  138.9479  165.0560 C.ar    1  UNL1        0.2043
     11 O         138.8670  137.5840  165.6375 O.2     1  UNL1       -0.2863
     12 C         139.7777  143.0394  163.3115 C.ar    1  UNL1        0.0654
     13 C         138.6430  144.0165  163.2245 C.ar    1  UNL1        0.0176
     14 C         138.8707  145.3804  162.6430 C.ar    1  UNL1        0.0015
     15 C         140.2330  145.7670  162.1486 C.ar    1  UNL1        0.0001
     16 C         141.3678  144.7898  162.2356 C.ar    1  UNL1        0.0015
     17 C         141.1401  143.4260  162.8171 C.ar    1  UNL1        0.0176
     18 N         141.0113  140.1383  168.0616 N.am    1  UNL1       -0.3024
     19 C         139.6866  139.8558  167.4172 C.2     1  UNL1        0.2504
     20 O         138.5440  139.3453  168.2442 O.2     1  UNL1       -0.2700
     21 H         141.7613  140.4734  167.5188 H       1  UNL1        0.1497
     22 C         142.2589  138.9738  170.0205 C.3     1  UNL1        0.0213
     23 C         141.1935  139.9104  169.5329 C.3     1  UNL1        0.0720
     24 C         140.3103  140.6191  170.5166 C.3     1  UNL1        0.0213
@<TRIPOS>BOND
     1    22    23    1
     2    23    24    1
     3    23    18    1
     4    18    19   am
     5    19    20    2
     6    19     1    1
     7     1     2   ar
     8     2     3   ar
     9     3    12    1
    10    12    13   ar
    11    13    14   ar
    12    14    15   ar
    13    15    16   ar
    14    16    17   ar
    15     3     4   ar
    16     4     5   ar
    17     5     6   ar
    18     6     7   ar
    19     7     8   ar
    20     8     9   ar
    21     9    10   ar
    22    10    11    2
    23    10     1   ar
    24    17    12   ar
    25     9     4   ar
    26    18    21    1
@<TRIPOS>MOLECULE
*****
 24 26 0 0 0
SMALL
GASTEIGER

@<TRIPOS>ATOM
      1 C         140.6332  142.9093  161.6180 C.ar    1  UNL1        0.1098
      2 C         139.9544  141.7834  162.3403 C.ar    1  UNL1        0.0891
      3 N         140.4876  141.3092  163.6597 N.ar    1  UNL1       -0.2900
      4 C         141.6996  141.9609  164.2568 C.ar    1  UNL1        0.1507
      5 N         142.2328  141.4867  165.5762 N.ar    1  UNL1       -0.2263
      6 C         143.4448  142.1383  166.1732 C.ar    1  UNL1        0.1005
      7 C         144.1235  143.2642  165.4509 C.ar    1  UNL1        0.0209
      8 C         143.5903  143.7384  164.1316 C.ar    1  UNL1        0.0078
      9 C         142.3784  143.0868  163.5345 C.ar    1  UNL1        0.0736
     10 C         141.8451  143.5610  162.2151 C.ar    1  UNL1        0.2043
     11 O         142.5238  144.6868  161.4928 O.2     1  UNL1       -0.2863
     12 C         139.8089  140.1833  164.3820 C.ar    1  UNL1        0.0654
     13 C         138.7268  140.4759  165.3787 C.ar    1  UNL1        0.0176
     14 C         138.0481  139.3500  166.1010 C.ar    1  UNL1        0.0015
     15 C         138.4514  137.9316  165.8266 C.ar    1  UNL1        0.0001
     16 C         139.5336  137.6390  164.8299 C.ar    1  UNL1        0.0015
     17 C         140.2123  138.7649  164.1076 C.ar    1  UNL1        0.0176
     18 N         141.0423  143.8883  159.2465 N.am    1  UNL1       -0.3024
     19 C         140.0999  143.3835  160.2986 C.2     1  UNL1        0.2504
     20 O         138.6242  143.3529  160.0313 O.2     1  UNL1       -0.2700
     21 H         142.0109  143.9084  159.4219 H       1  UNL1        0.1497
     22 C         140.2055  143.3730  156.8415 C.3     1  UNL1        0.0213
     23 C         140.5092  144.3625  157.9271 C.3     1  UNL1        0.0720
     24 C         140.2796  145.8263  157.6934 C.3     1  UNL1        0.0213
@<TRIPOS>BOND
     1    22    23    1
     2    23    24    1
     3    23    18    1
     4    18    19   am
     5    19    20    2
     6    19     1    1
     7     1     2   ar
     8     2     3   ar
     9     3    12    1
    10    12    13   ar
    11    13    14   ar
    12    14    15   ar
    13    15    16   ar
    14    16    17   ar
    15     3     4   ar
    16     4     5   ar
    17     5     6   ar
    18     6     7   ar
    19     7     8   ar
    20     8     9   ar
    21     9    10   ar
    22    10    11    2
    23    10     1   ar
    24    17    12   ar
    25     9     4   ar
    26    18    21    1
@<TRIPOS>MOLECULE
*****
 24 26 0 0 0
SMALL
GASTEIGER

@<TRIPOS>ATOM
      1 C         140.3355  142.0975  166.7727 C.ar    1  UNL1        0.1098
      2 C         140.4841  143.0931  165.6606 C.ar    1  UNL1        0.0891
      3 N         140.1052  142.7145  164.2595 N.ar    1  UNL1       -0.2900
      4 C         139.5777  141.3403  163.9705 C.ar    1  UNL1        0.1507
      5 N         139.1988  140.9618  162.5694 N.ar    1  UNL1       -0.2263
      6 C         138.6713  139.5877  162.2805 C.ar    1  UNL1        0.1005
      7 C         138.5227  138.5921  163.3926 C.ar    1  UNL1        0.0209
      8 C         138.9016  138.9707  164.7937 C.ar    1  UNL1        0.0078
      9 C         139.4291  140.3448  165.0826 C.ar    1  UNL1        0.0736
     10 C         139.8080  140.7234  166.4838 C.ar    1  UNL1        0.2043
     11 O         139.6594  139.7279  167.5959 O.2     1  UNL1       -0.2863
     12 C         140.2538  143.7100  163.1474 C.ar    1  UNL1        0.0654
     13 C         139.2738  144.8378  163.0144 C.ar    1  UNL1        0.0176
     14 C         139.4224  145.8333  161.9023 C.ar    1  UNL1        0.0015
     15 C         140.5510  145.7011  160.9231 C.ar    1  UNL1        0.0001
     16 C         141.5311  144.5733  161.0561 C.ar    1  UNL1        0.0015
     17 C         141.3825  143.5778  162.1682 C.ar    1  UNL1        0.0176
     18 N         141.7351  141.6682  168.9191 N.am    1  UNL1       -0.3024
     19 C         140.7144  142.4762  168.1739 C.2     1  UNL1        0.2504
     20 O         140.0726  143.6627  168.8297 O.2     1  UNL1       -0.2700
     21 H         142.1564  140.8894  168.4886 H       1  UNL1        0.1497
     22 C         143.1236  143.1306  170.5572 C.3     1  UNL1        0.0213
     23 C         142.1141  142.0468  170.3202 C.3     1  UNL1        0.0720
     24 C         141.4835  141.3415  171.4841 C.3     1  UNL1        0.0213
@<TRIPOS>BOND
     1    22    23    1
     2    23    24    1
     3    23    18    1
     4    18    19   am
     5    19    20    2
     6    19     1    1
     7     1     2   ar
     8     2     3   ar
     9     3    12    1
    10    12    13   ar
    11    13    14   ar
    12    14    15   ar
    13    15    16   ar
    14    16    17   ar
    15     3     4   ar
    16     4     5   ar
    17     5     6   ar
    18     6     7   ar
    19     7     8   ar
    20     8     9   ar
    21     9    10   ar
    22    10    11    2
    23    10     1   ar
    24    17    12   ar
    25     9     4   ar
    26    18    21    1
@<TRIPOS>MOLECULE
*****
 24 26 0 0 0
SMALL
GASTEIGER

@<TRIPOS>ATOM
      1 C         140.7116  142.4434  163.7730 C.ar    1  UNL1        0.1098
      2 C         140.2299  142.4580  165.1935 C.ar    1  UNL1        0.0891
      3 N         140.8404  141.5305  166.2020 N.ar    1  UNL1       -0.2900
      4 C         141.9326  140.5884  165.7900 C.ar    1  UNL1        0.1507
      5 N         142.5431  139.6609  166.7985 N.ar    1  UNL1       -0.2263
      6 C         143.6352  138.7189  166.3865 C.ar    1  UNL1        0.1005
      7 C         144.1169  138.7044  164.9660 C.ar    1  UNL1        0.0209
      8 C         143.5064  139.6318  163.9575 C.ar    1  UNL1        0.0078
      9 C         142.4143  140.5739  164.3695 C.ar    1  UNL1        0.0736
     10 C         141.8038  141.5014  163.3610 C.ar    1  UNL1        0.2043
     11 O         142.2854  141.4869  161.9405 O.2     1  UNL1       -0.2863
     12 C         140.3587  141.5450  167.6225 C.ar    1  UNL1        0.0654
     13 C         139.6094  140.3678  168.1724 C.ar    1  UNL1        0.0176
     14 C         139.1277  140.3823  169.5929 C.ar    1  UNL1        0.0015
     15 C         139.3954  141.5741  170.4634 C.ar    1  UNL1        0.0001
     16 C         140.1447  142.7515  169.9135 C.ar    1  UNL1        0.0015
     17 C         140.6264  142.7369  168.4930 C.ar    1  UNL1        0.0176
     18 N         140.9554  144.3876  162.0669 N.am    1  UNL1       -0.3024
     19 C         140.1011  143.3710  162.7645 C.2     1  UNL1        0.2504
     20 O         138.6364  143.2818  162.4537 O.2     1  UNL1       -0.2700
     21 H         141.9167  144.4461  162.2709 H       1  UNL1        0.1497
     22 C         140.5251  145.0528  159.5926 C.3     1  UNL1        0.0213
     23 C         140.3449  145.3151  161.0584 C.3     1  UNL1        0.0720
     24 C         139.5543  146.5049  161.5158 C.3     1  UNL1        0.0213
@<TRIPOS>BOND
     1    22    23    1
     2    23    24    1
     3    23    18    1
     4    18    19   am
     5    19    20    2
     6    19     1    1
     7     1     2   ar
     8     2     3   ar
     9     3    12    1
    10    12    13   ar
    11    13    14   ar
    12    14    15   ar
    13    15    16   ar
    14    16    17   ar
    15     3     4   ar
    16     4     5   ar
    17     5     6   ar
    18     6     7   ar
    19     7     8   ar
    20     8     9   ar
    21     9    10   ar
    22    10    11    2
    23    10     1   ar
    24    17    12   ar
    25     9     4   ar
    26    18    21    1
@<TRIPOS>MOLECULE
*****
 24 26 0 0 0
SMALL
GASTEIGER

@<TRIPOS>ATOM
      1 C         142.0216  139.9979  164.3004 C.ar    1  UNL1        0.1098
      2 C         142.3211  140.8234  165.5166 C.ar    1  UNL1        0.0891
      3 N         141.3972  140.7815  166.6975 N.ar    1  UNL1       -0.2900
      4 C         140.1738  139.9142  166.6624 C.ar    1  UNL1        0.1507
      5 N         139.2499  139.8724  167.8433 N.ar    1  UNL1       -0.2263
      6 C         138.0266  139.0051  167.8082 C.ar    1  UNL1        0.1005
      7 C         137.7272  138.1797  166.5920 C.ar    1  UNL1        0.0209
      8 C         138.6510  138.2215  165.4111 C.ar    1  UNL1        0.0078
      9 C         139.8743  139.0888  165.4463 C.ar    1  UNL1        0.0736
     10 C         140.7983  139.1307  164.2653 C.ar    1  UNL1        0.2043
     11 O         140.4988  138.3052  163.0491 O.2     1  UNL1       -0.2863
     12 C         141.6967  141.6069  167.9137 C.ar    1  UNL1        0.0654
     13 C         142.9761  141.3952  168.6674 C.ar    1  UNL1        0.0176
     14 C         143.2756  142.2206  169.8836 C.ar    1  UNL1        0.0015
     15 C         142.2956  143.2578  170.3460 C.ar    1  UNL1        0.0001
     16 C         141.0161  143.4696  169.5922 C.ar    1  UNL1        0.0015
     17 C         140.7166  142.6442  168.3761 C.ar    1  UNL1        0.0176
     18 N         142.4277  140.4629  161.7767 N.am    1  UNL1       -0.3024
     19 C         142.9455  140.0398  163.1195 C.2     1  UNL1        0.2504
     20 O         144.3872  139.6586  163.2812 O.2     1  UNL1       -0.2700
     21 H         141.4814  140.7130  161.6706 H       1  UNL1        0.1497
     22 C         144.1422  141.7460  160.3057 C.3     1  UNL1        0.0213
     23 C         143.3515  140.5048  160.5958 C.3     1  UNL1        0.0720
     24 C         143.4847  139.3054  159.7049 C.3     1  UNL1        0.0213
@<TRIPOS>BOND
     1    22    23    1
     2    23    24    1
     3    23    18    1
     4    18    19   am
     5    19    20    2
     6    19     1    1
     7     1     2   ar
     8     2     3   ar
     9     3    12    1
    10    12    13   ar
    11    13    14   ar
    12    14    15   ar
    13    15    16   ar
    14    16    17   ar
    15     3     4   ar
    16     4     5   ar
    17     5     6   ar
    18     6     7   ar
    19     7     8   ar
    20     8     9   ar
    21     9    10   ar
    22    10    11    2
    23    10     1   ar
    24    17    12   ar
    25     9     4   ar
    26    18    21    1
@<TRIPOS>MOLECULE
*****
 24 26 0 0 0
SMALL
GASTEIGER

@<TRIPOS>ATOM
      1 C         140.1423  141.0272  166.6644 C.ar    1  UNL1        0.1098
      2 C         139.9761  140.1227  165.4793 C.ar    1  UNL1        0.0891
      3 N         139.6782  140.7033  164.1287 N.ar    1  UNL1       -0.2900
      4 C         139.5465  142.1883  163.9631 C.ar    1  UNL1        0.1507
      5 N         139.2487  142.7688  162.6125 N.ar    1  UNL1       -0.2263
      6 C         139.1170  144.2538  162.4469 C.ar    1  UNL1        0.1005
      7 C         139.2832  145.1583  163.6320 C.ar    1  UNL1        0.0209
      8 C         139.5811  144.5777  164.9826 C.ar    1  UNL1        0.0078
      9 C         139.7127  143.0928  165.1481 C.ar    1  UNL1        0.0736
     10 C         140.0106  142.5121  166.4988 C.ar    1  UNL1        0.2043
     11 O         140.1768  143.4166  167.6839 O.2     1  UNL1       -0.2863
     12 C         139.5120  139.7988  162.9437 C.ar    1  UNL1        0.0654
     13 C         140.7033  139.4254  162.1122 C.ar    1  UNL1        0.0176
     14 C         140.5371  138.5210  160.9272 C.ar    1  UNL1        0.0015
     15 C         139.1796  137.9899  160.5735 C.ar    1  UNL1        0.0001
     16 C         137.9882  138.3633  161.4050 C.ar    1  UNL1        0.0015
     17 C         138.1544  139.2677  162.5901 C.ar    1  UNL1        0.0176
     18 N         141.7759  140.6833  168.6551 N.am    1  UNL1       -0.3024
     19 C         140.4401  140.4466  168.0151 C.2     1  UNL1        0.2504
     20 O         139.4023  139.6293  168.7256 O.2     1  UNL1       -0.2700
     21 H         142.4571  141.2197  168.1888 H       1  UNL1        0.1497
     22 C         141.8357  140.9184  171.2419 C.3     1  UNL1        0.0213
     23 C         142.0738  140.1027  170.0057 C.3     1  UNL1        0.0720
     24 C         142.6098  138.7065  170.1202 C.3     1  UNL1        0.0213
@<TRIPOS>BOND
     1    22    23    1
     2    23    24    1
     3    23    18    1
     4    18    19   am
     5    19    20    2
     6    19     1    1
     7     1     2   ar
     8     2     3   ar
     9     3    12    1
    10    12    13   ar
    11    13    14   ar
    12    14    15   ar
    13    15    16   ar
    14    16    17   ar
    15     3     4   ar
    16     4     5   ar
    17     5     6   ar
    18     6     7   ar
    19     7     8   ar
    20     8     9   ar
    21     9    10   ar
    22    10    11    2
    23    10     1   ar
    24    17    12   ar
    25     9     4   ar
    26    18    21    1
@<TRIPOS>MOLECULE
*****
 24 26 0 0 0
SMALL
GASTEIGER

@<TRIPOS>ATOM
      1 C         142.1976  141.9541  166.6142 C.ar    1  UNL1        0.1098
      2 C         141.2068  141.0948  165.8862 C.ar    1  UNL1        0.0891
      3 N         141.4687  140.6861  164.4669 N.ar    1  UNL1       -0.2900
      4 C         142.7214  141.1367  163.7756 C.ar    1  UNL1        0.1507
      5 N         142.9833  140.7280  162.3564 N.ar    1  UNL1       -0.2263
      6 C         144.2359  141.1787  161.6651 C.ar    1  UNL1        0.1005
      7 C         145.2266  142.0380  162.3932 C.ar    1  UNL1        0.0209
      8 C         144.9647  142.4467  163.8124 C.ar    1  UNL1        0.0078
      9 C         143.7121  141.9961  164.5037 C.ar    1  UNL1        0.0736
     10 C         143.4502  142.4047  165.9230 C.ar    1  UNL1        0.2043
     11 O         144.4409  143.2641  166.6510 O.2     1  UNL1       -0.2863
     12 C         140.4780  139.8268  163.7389 C.ar    1  UNL1        0.0654
     13 C         139.3500  140.4608  162.9803 C.ar    1  UNL1        0.0176
     14 C         138.3593  139.6014  162.2522 C.ar    1  UNL1        0.0015
     15 C         138.4966  138.1081  162.2828 C.ar    1  UNL1        0.0001
     16 C         139.6246  137.4740  163.0415 C.ar    1  UNL1        0.0015
     17 C         140.6154  138.3333  163.7695 C.ar    1  UNL1        0.0176
     18 N         140.5867  142.8888  168.4258 N.am    1  UNL1       -0.3024
     19 C         141.9356  142.3628  168.0335 C.2     1  UNL1        0.2504
     20 O         143.0225  142.2455  169.0606 O.2     1  UNL1       -0.2700
     21 H         139.8734  142.9658  167.7516 H       1  UNL1        0.1497
     22 C         140.1633  142.2524  170.9088 C.3     1  UNL1        0.0213
     23 C         140.3247  143.2975  169.8450 C.3     1  UNL1        0.0720
     24 C         140.2242  144.7513  170.2004 C.3     1  UNL1        0.0213
@<TRIPOS>BOND
     1    22    23    1
     2    23    24    1
     3    23    18    1
     4    18    19   am
     5    19    20    2
     6    19     1    1
     7     1     2   ar
     8     2     3   ar
     9     3    12    1
    10    12    13   ar
    11    13    14   ar
    12    14    15   ar
    13    15    16   ar
    14    16    17   ar
    15     3     4   ar
    16     4     5   ar
    17     5     6   ar
    18     6     7   ar
    19     7     8   ar
    20     8     9   ar
    21     9    10   ar
    22    10    11    2
    23    10     1   ar
    24    17    12   ar
    25     9     4   ar
    26    18    21    1
