@<TRIPOS>MOLECULE
*****
 39 42 0 0 0
SMALL
GASTEIGER

@<TRIPOS>ATOM
      1 N         143.0972  139.1434  163.5437 N.3     1  UNL1       -0.2711
      2 C         144.0375  139.6672  162.4988 C.3     1  UNL1        0.0933
      3 C         143.4631  138.7063  161.5004 C.3     1  UNL1        0.1035
      4 C         142.5228  138.1826  162.5453 C.3     1  UNL1        0.0933
      5 C         142.3213  140.0709  167.8782 C.3     1  UNL1        0.1064
      6 O         142.6207  139.5228  169.2419 O.3     1  UNL1       -0.3827
      7 C         141.7802  140.9738  166.8095 C.3     1  UNL1        0.0325
      8 C         142.0389  140.6647  165.3647 C.3     1  UNL1        0.0187
      9 C         142.8385  139.4526  164.9885 C.3     1  UNL1        0.0578
     10 C         143.3795  138.5497  166.0572 C.3     1  UNL1        0.0187
     11 C         143.1209  138.8588  167.5020 C.3     1  UNL1        0.0325
     12 H         142.2224  140.0961  169.9154 H       1  UNL1        0.2107
     13 C         139.4035  139.7650  168.5051 C.3     1  UNL1        0.0308
     14 C         140.1667  140.9397  169.0414 C.ar    1  UNL1       -0.0240
     15 C         139.4711  141.9614  169.8912 C.ar    1  UNL1       -0.0045
     16 C         140.2344  143.1361  170.4275 C.ar    1  UNL1       -0.0007
     17 C         141.6932  143.2890  170.1141 C.ar    1  UNL1       -0.0045
     18 C         142.3888  142.2673  169.2643 C.ar    1  UNL1       -0.0240
     19 C         143.8478  142.4202  168.9508 C.3     1  UNL1        0.0308
     20 C         141.6256  141.0926  168.7280 C.ar    1  UNL1       -0.0062
     21 N         143.7218  138.3971  160.0556 N.am    1  UNL1       -0.3018
     22 C         142.7270  138.8081  159.0109 C.2     1  UNL1        0.2426
     23 O         141.4735  139.5283  159.4110 O.2     1  UNL1       -0.2733
     24 H         144.5445  137.9245  159.7930 H       1  UNL1        0.1495
     25 C         142.9858  138.4990  157.5660 C.3     1  UNL1        0.1759
     26 N         142.7143  137.1234  157.0332 N.am    1  UNL1       -0.2931
     27 C         143.6541  136.5042  156.0414 C.2     1  UNL1        0.2462
     28 O         144.8653  137.2608  155.5826 O.2     1  UNL1       -0.2701
     29 H         141.9193  136.6268  157.3344 H       1  UNL1        0.1502
     30 C         143.3826  135.1286  155.5086 C.ar    1  UNL1        0.0533
     31 C         142.5855  134.9556  154.2498 C.ar    1  UNL1        0.0045
     32 C         142.3141  133.5800  153.7171 C.ar    1  UNL1        0.0001
     33 C         142.8398  132.3772  154.4431 C.ar    1  UNL1        0.0039
     34 C         143.6369  132.5503  155.7019 C.ar    1  UNL1        0.0716
     35 C         143.9084  133.9259  156.2347 C.ar    1  UNL1        0.0084
     36 C         144.1626  131.3475  156.4279 C.3     1  UNL1        0.4186
     37 F         144.6884  130.1448  157.1539 F       1  UNL1       -0.1659
     38 F         142.7748  130.7826  156.4971 F       1  UNL1       -0.1659
     39 F         145.5505  131.9124  156.3587 F       1  UNL1       -0.1659
@<TRIPOS>BOND
     1    13    14    1
     2    14    15   ar
     3    15    16   ar
     4    16    17   ar
     5    17    18   ar
     6    18    19    1
     7    18    20   ar
     8    20     5    1
     9     5     6    1
    10     5     7    1
    11     7     8    1
    12     8     9    1
    13     9     1    1
    14     1     2    1
    15     2     3    1
    16     3    21    1
    17    21    22   am
    18    22    23    2
    19    22    25    1
    20    25    26    1
    21    26    27   am
    22    27    28    2
    23    27    30    1
    24    30    31   ar
    25    31    32   ar
    26    32    33   ar
    27    33    34   ar
    28    34    36    1
    29    36    37    1
    30    36    38    1
    31    36    39    1
    32    34    35   ar
    33     3     4    1
    34     9    10    1
    35    10    11    1
    36    20    14   ar
    37    11     5    1
    38     4     1    1
    39    35    30   ar
    40     6    12    1
    41    21    24    1
    42    26    29    1
@<TRIPOS>MOLECULE
*****
 39 42 0 0 0
SMALL
GASTEIGER

@<TRIPOS>ATOM
      1 N         143.0861  139.4628  163.3576 N.3     1  UNL1       -0.2711
      2 C         143.7352  138.3711  162.5594 C.3     1  UNL1        0.0933
      3 C         143.4736  139.1384  161.2974 C.3     1  UNL1        0.1035
      4 C         142.8245  140.2300  162.0956 C.3     1  UNL1        0.0933
      5 C         142.2644  140.1504  167.7282 C.3     1  UNL1        0.1064
      6 O         142.5258  139.5131  169.0607 O.3     1  UNL1       -0.3827
      7 C         141.7665  141.1310  166.7081 C.3     1  UNL1        0.0325
      8 C         142.0404  140.9018  165.2513 C.3     1  UNL1        0.0187
      9 C         142.8122  139.6920  164.8145 C.3     1  UNL1        0.0578
     10 C         143.3101  138.7114  165.8346 C.3     1  UNL1        0.0187
     11 C         143.0362  138.9406  167.2914 C.3     1  UNL1        0.0325
     12 H         142.1324  140.0562  169.7615 H       1  UNL1        0.2107
     13 C         143.8064  142.4641  168.8546 C.3     1  UNL1        0.0308
     14 C         142.3544  142.2957  169.1909 C.ar    1  UNL1       -0.0240
     15 C         141.6733  143.2841  170.0904 C.ar    1  UNL1       -0.0045
     16 C         140.2212  143.1157  170.4268 C.ar    1  UNL1       -0.0007
     17 C         139.4502  141.9588  169.8636 C.ar    1  UNL1       -0.0045
     18 C         140.1313  140.9704  168.9641 C.ar    1  UNL1       -0.0240
     19 C         139.3603  139.8135  168.4008 C.3     1  UNL1        0.0308
     20 C         141.5834  141.1389  168.6278 C.ar    1  UNL1       -0.0062
     21 N         143.7476  138.9091  159.8406 N.am    1  UNL1       -0.3018
     22 C         142.6310  138.5122  158.9208 C.2     1  UNL1        0.2426
     23 O         141.2405  138.3447  159.4579 O.2     1  UNL1       -0.2733
     24 H         144.6602  139.0190  159.4881 H       1  UNL1        0.1495
     25 C         142.9051  138.2829  157.4639 C.3     1  UNL1        0.1759
     26 N         142.6359  136.9398  156.8526 N.am    1  UNL1       -0.2931
     27 C         143.6166  136.3460  155.8853 C.2     1  UNL1        0.2462
     28 O         144.8664  137.0952  155.5294 O.2     1  UNL1       -0.2701
     29 H         141.8156  136.4481  157.0862 H       1  UNL1        0.1502
     30 C         143.3475  135.0029  155.2740 C.ar    1  UNL1        0.0533
     31 C         142.4731  134.8929  154.0602 C.ar    1  UNL1        0.0045
     32 C         142.2040  133.5499  153.4489 C.ar    1  UNL1        0.0001
     33 C         142.8093  132.3167  154.0514 C.ar    1  UNL1        0.0039
     34 C         143.6837  132.4267  155.2652 C.ar    1  UNL1        0.0716
     35 C         143.9529  133.7698  155.8765 C.ar    1  UNL1        0.0084
     36 C         144.2890  131.1935  155.8676 C.3     1  UNL1        0.4186
     37 F         144.8944  129.9605  156.4701 F       1  UNL1       -0.1659
     38 F         143.1358  130.3796  155.3603 F       1  UNL1       -0.1659
     39 F         145.4423  132.0076  156.3751 F       1  UNL1       -0.1659
@<TRIPOS>BOND
     1    13    14    1
     2    14    15   ar
     3    15    16   ar
     4    16    17   ar
     5    17    18   ar
     6    18    19    1
     7    18    20   ar
     8    20     5    1
     9     5     6    1
    10     5     7    1
    11     7     8    1
    12     8     9    1
    13     9     1    1
    14     1     2    1
    15     2     3    1
    16     3    21    1
    17    21    22   am
    18    22    23    2
    19    22    25    1
    20    25    26    1
    21    26    27   am
    22    27    28    2
    23    27    30    1
    24    30    31   ar
    25    31    32   ar
    26    32    33   ar
    27    33    34   ar
    28    34    36    1
    29    36    37    1
    30    36    38    1
    31    36    39    1
    32    34    35   ar
    33     3     4    1
    34     9    10    1
    35    10    11    1
    36    20    14   ar
    37    11     5    1
    38     4     1    1
    39    35    30   ar
    40     6    12    1
    41    21    24    1
    42    26    29    1
@<TRIPOS>MOLECULE
*****
 39 42 0 0 0
SMALL
GASTEIGER

@<TRIPOS>ATOM
      1 N         139.4559  140.6598  162.0432 N.3     1  UNL1       -0.2711
      2 C         139.5370  139.7680  160.8398 C.3     1  UNL1        0.0933
      3 C         138.3154  140.4260  160.2698 C.3     1  UNL1        0.1035
      4 C         138.2344  141.3178  161.4733 C.3     1  UNL1        0.0933
      5 C         141.8754  141.1556  165.8048 C.3     1  UNL1        0.1064
      6 O         143.1144  141.8469  166.2913 O.3     1  UNL1       -0.3827
      7 C         140.6351  140.3120  165.8165 C.3     1  UNL1        0.0325
      8 C         139.8286  140.1467  164.5627 C.3     1  UNL1        0.0187
      9 C         140.2623  140.8250  163.2971 C.3     1  UNL1        0.0578
     10 C         141.5026  141.6686  163.2854 C.3     1  UNL1        0.0187
     11 C         142.3091  141.8339  164.5392 C.3     1  UNL1        0.0325
     12 H         143.2462  141.6503  167.2320 H       1  UNL1        0.2107
     13 C         143.2990  138.6400  166.6083 C.3     1  UNL1        0.0308
     14 C         142.5838  139.4596  167.6411 C.ar    1  UNL1       -0.0240
     15 C         142.5803  139.0214  169.0757 C.ar    1  UNL1       -0.0045
     16 C         141.8651  139.8410  170.1085 C.ar    1  UNL1       -0.0007
     17 C         141.1533  141.0987  169.7068 C.ar    1  UNL1       -0.0045
     18 C         141.1567  141.5369  168.2722 C.ar    1  UNL1       -0.0240
     19 C         140.4449  142.7947  167.8705 C.3     1  UNL1        0.0308
     20 C         141.8720  140.7173  167.2394 C.ar    1  UNL1       -0.0062
     21 N         137.5090  140.2608  159.0159 N.am    1  UNL1       -0.3018
     22 C         137.8509  141.0601  157.7935 C.2     1  UNL1        0.2426
     23 O         138.9992  142.0247  157.8251 O.2     1  UNL1       -0.2733
     24 H         136.7554  139.6277  158.9952 H       1  UNL1        0.1495
     25 C         137.0444  140.8947  156.5395 C.3     1  UNL1        0.1759
     26 N         135.5510  141.0266  156.5856 N.am    1  UNL1       -0.2931
     27 C         134.6854  139.9737  155.9592 C.2     1  UNL1        0.2462
     28 O         135.3134  138.7891  155.2868 O.2     1  UNL1       -0.2701
     29 H         135.1388  141.8042  157.0269 H       1  UNL1        0.1502
     30 C         133.1920  140.1056  156.0052 C.ar    1  UNL1        0.0533
     31 C         132.5288  141.3258  155.4384 C.ar    1  UNL1        0.0045
     32 C         131.0355  141.4575  155.4844 C.ar    1  UNL1        0.0001
     33 C         130.2050  140.3691  156.0975 C.ar    1  UNL1        0.0039
     34 C         130.8681  139.1490  156.6644 C.ar    1  UNL1        0.0716
     35 C         132.3615  139.0171  156.6183 C.ar    1  UNL1        0.0084
     36 C         130.0376  138.0605  157.2774 C.3     1  UNL1        0.4186
     37 F         129.2072  136.9722  157.8905 F       1  UNL1       -0.1659
     38 F         129.7206  137.5321  155.9098 F       1  UNL1       -0.1659
     39 F         130.3547  138.5890  158.6450 F       1  UNL1       -0.1659
@<TRIPOS>BOND
     1    13    14    1
     2    14    15   ar
     3    15    16   ar
     4    16    17   ar
     5    17    18   ar
     6    18    19    1
     7    18    20   ar
     8    20     5    1
     9     5     6    1
    10     5     7    1
    11     7     8    1
    12     8     9    1
    13     9     1    1
    14     1     2    1
    15     2     3    1
    16     3    21    1
    17    21    22   am
    18    22    23    2
    19    22    25    1
    20    25    26    1
    21    26    27   am
    22    27    28    2
    23    27    30    1
    24    30    31   ar
    25    31    32   ar
    26    32    33   ar
    27    33    34   ar
    28    34    36    1
    29    36    37    1
    30    36    38    1
    31    36    39    1
    32    34    35   ar
    33     3     4    1
    34     9    10    1
    35    10    11    1
    36    20    14   ar
    37    11     5    1
    38     4     1    1
    39    35    30   ar
    40     6    12    1
    41    21    24    1
    42    26    29    1
@<TRIPOS>MOLECULE
*****
 39 42 0 0 0
SMALL
GASTEIGER

@<TRIPOS>ATOM
      1 N         141.0297  139.7208  162.3082 N.3     1  UNL1       -0.2711
      2 C         141.2265  140.2868  160.9331 C.3     1  UNL1        0.0933
      3 C         141.1187  138.9087  160.3505 C.3     1  UNL1        0.1035
      4 C         140.9219  138.3428  161.7257 C.3     1  UNL1        0.0933
      5 C         140.8408  141.4437  166.4610 C.3     1  UNL1        0.1064
      6 O         140.2766  142.6274  167.1893 O.3     1  UNL1       -0.3827
      7 C         141.5674  140.1545  166.2163 C.3     1  UNL1        0.0325
      8 C         141.6304  139.5802  164.8320 C.3     1  UNL1        0.0187
      9 C         140.9668  140.2950  163.6925 C.3     1  UNL1        0.0578
     10 C         140.2401  141.5843  163.9373 C.3     1  UNL1        0.0187
     11 C         140.1772  142.1586  165.3215 C.3     1  UNL1        0.0325
     12 H         140.5052  142.5673  168.1301 H       1  UNL1        0.2107
     13 C         139.1289  139.7959  168.2924 C.3     1  UNL1        0.0308
     14 C         140.4526  140.3160  168.7692 C.ar    1  UNL1       -0.0240
     15 C         140.9204  140.0122  170.1616 C.ar    1  UNL1       -0.0045
     16 C         142.2441  140.5324  170.6383 C.ar    1  UNL1       -0.0007
     17 C         143.1000  141.3562  169.7227 C.ar    1  UNL1       -0.0045
     18 C         142.6323  141.6600  168.3303 C.ar    1  UNL1       -0.0240
     19 C         143.4882  142.4840  167.4145 C.3     1  UNL1        0.0308
     20 C         141.3085  141.1399  167.8535 C.ar    1  UNL1       -0.0062
     21 N         141.1816  138.3346  158.9662 N.am    1  UNL1       -0.3018
     22 C         140.0108  138.4802  158.0399 C.2     1  UNL1        0.2426
     23 O         138.7771  139.2001  158.4979 O.2     1  UNL1       -0.2733
     24 H         141.9914  137.8621  158.6656 H       1  UNL1        0.1495
     25 C         140.0738  137.9060  156.6555 C.3     1  UNL1        0.1759
     26 N         140.6333  136.5313  156.4386 N.am    1  UNL1       -0.2931
     27 C         141.9492  136.3587  155.7396 C.2     1  UNL1        0.2462
     28 O         142.7056  137.5610  155.2575 O.2     1  UNL1       -0.2701
     29 H         140.1368  135.7422  156.7551 H       1  UNL1        0.1502
     30 C         142.5086  134.9840  155.5227 C.ar    1  UNL1        0.0533
     31 C         142.1337  134.2065  154.2960 C.ar    1  UNL1        0.0045
     32 C         142.6932  132.8318  154.0792 C.ar    1  UNL1        0.0001
     33 C         143.6277  132.2344  155.0891 C.ar    1  UNL1        0.0039
     34 C         144.0026  133.0119  156.3159 C.ar    1  UNL1        0.0716
     35 C         143.4431  134.3866  156.5328 C.ar    1  UNL1        0.0084
     36 C         144.9370  132.4145  157.3259 C.3     1  UNL1        0.4186
     37 F         145.8714  131.8172  158.3359 F       1  UNL1       -0.1659
     38 F         145.3914  131.4084  156.3104 F       1  UNL1       -0.1659
     39 F         144.4826  133.4207  158.3414 F       1  UNL1       -0.1659
@<TRIPOS>BOND
     1    13    14    1
     2    14    15   ar
     3    15    16   ar
     4    16    17   ar
     5    17    18   ar
     6    18    19    1
     7    18    20   ar
     8    20     5    1
     9     5     6    1
    10     5     7    1
    11     7     8    1
    12     8     9    1
    13     9     1    1
    14     1     2    1
    15     2     3    1
    16     3    21    1
    17    21    22   am
    18    22    23    2
    19    22    25    1
    20    25    26    1
    21    26    27   am
    22    27    28    2
    23    27    30    1
    24    30    31   ar
    25    31    32   ar
    26    32    33   ar
    27    33    34   ar
    28    34    36    1
    29    36    37    1
    30    36    38    1
    31    36    39    1
    32    34    35   ar
    33     3     4    1
    34     9    10    1
    35    10    11    1
    36    20    14   ar
    37    11     5    1
    38     4     1    1
    39    35    30   ar
    40     6    12    1
    41    21    24    1
    42    26    29    1
@<TRIPOS>MOLECULE
*****
 39 42 0 0 0
SMALL
GASTEIGER

@<TRIPOS>ATOM
      1 N         142.0650  139.0920  162.8079 N.3     1  UNL1       -0.2711
      2 C         143.0504  139.3438  161.7053 C.3     1  UNL1        0.0933
      3 C         142.5879  138.0989  161.0079 C.3     1  UNL1        0.1035
      4 C         141.6026  137.8472  162.1105 C.3     1  UNL1        0.0933
      5 C         140.9559  141.1992  166.6262 C.3     1  UNL1        0.1064
      6 O         140.2617  142.4449  167.0913 O.3     1  UNL1       -0.3827
      7 C         141.6945  139.8946  166.6768 C.3     1  UNL1        0.0325
      8 C         142.0642  139.1922  165.4041 C.3     1  UNL1        0.0187
      9 C         141.6953  139.7944  164.0807 C.3     1  UNL1        0.0578
     10 C         140.9567  141.0990  164.0301 C.3     1  UNL1        0.0187
     11 C         140.5870  141.8014  165.3028 C.3     1  UNL1        0.0325
     12 H         140.2658  142.4745  168.0608 H       1  UNL1        0.2107
     13 C         143.3198  142.3517  168.0697 C.3     1  UNL1        0.0308
     14 C         142.2656  141.6059  168.8329 C.ar    1  UNL1       -0.0240
     15 C         142.3934  141.4363  170.3177 C.ar    1  UNL1       -0.0045
     16 C         141.3392  140.6904  171.0809 C.ar    1  UNL1       -0.0007
     17 C         140.1572  140.1142  170.3592 C.ar    1  UNL1       -0.0045
     18 C         140.0295  140.2838  168.8743 C.ar    1  UNL1       -0.0240
     19 C         138.8475  139.7075  168.1525 C.3     1  UNL1        0.0308
     20 C         141.0837  141.0296  168.1112 C.ar    1  UNL1       -0.0062
     21 N         142.9577  137.3966  159.7351 N.am    1  UNL1       -0.3018
     22 C         142.4927  137.9398  158.4164 C.2     1  UNL1        0.2426
     23 O         141.6580  139.1852  158.3706 O.2     1  UNL1       -0.2733
     24 H         143.5055  136.5792  159.7651 H       1  UNL1        0.1495
     25 C         142.8625  137.2374  157.1435 C.3     1  UNL1        0.1759
     26 N         142.9757  135.7420  157.1179 N.am    1  UNL1       -0.2931
     27 C         142.1668  134.9453  156.1375 C.2     1  UNL1        0.2462
     28 O         141.2448  135.6442  155.1829 O.2     1  UNL1       -0.2701
     29 H         143.5809  135.2833  157.7445 H       1  UNL1        0.1502
     30 C         142.2800  133.4498  156.1118 C.ar    1  UNL1        0.0533
     31 C         141.3916  132.6457  155.2096 C.ar    1  UNL1        0.0045
     32 C         141.5048  131.1503  155.1840 C.ar    1  UNL1        0.0001
     33 C         142.5066  130.4588  156.0606 C.ar    1  UNL1        0.0039
     34 C         143.3951  131.2629  156.9628 C.ar    1  UNL1        0.0716
     35 C         143.2819  132.7584  156.9884 C.ar    1  UNL1        0.0084
     36 C         144.3969  130.5715  157.8393 C.3     1  UNL1        0.4186
     37 F         145.3986  129.8799  158.7158 F       1  UNL1       -0.1659
     38 F         144.9350  131.9023  158.2742 F       1  UNL1       -0.1659
     39 F         143.8587  129.2405  157.4044 F       1  UNL1       -0.1659
@<TRIPOS>BOND
     1    13    14    1
     2    14    15   ar
     3    15    16   ar
     4    16    17   ar
     5    17    18   ar
     6    18    19    1
     7    18    20   ar
     8    20     5    1
     9     5     6    1
    10     5     7    1
    11     7     8    1
    12     8     9    1
    13     9     1    1
    14     1     2    1
    15     2     3    1
    16     3    21    1
    17    21    22   am
    18    22    23    2
    19    22    25    1
    20    25    26    1
    21    26    27   am
    22    27    28    2
    23    27    30    1
    24    30    31   ar
    25    31    32   ar
    26    32    33   ar
    27    33    34   ar
    28    34    36    1
    29    36    37    1
    30    36    38    1
    31    36    39    1
    32    34    35   ar
    33     3     4    1
    34     9    10    1
    35    10    11    1
    36    20    14   ar
    37    11     5    1
    38     4     1    1
    39    35    30   ar
    40     6    12    1
    41    21    24    1
    42    26    29    1
@<TRIPOS>MOLECULE
*****
 39 42 0 0 0
SMALL
GASTEIGER

@<TRIPOS>ATOM
      1 N         141.8305  143.8676  158.7638 N.3     1  UNL1       -0.2711
      2 C         143.1930  143.2746  158.9687 C.3     1  UNL1        0.0933
      3 C         142.8031  142.8581  160.3560 C.3     1  UNL1        0.1035
      4 C         141.4406  143.4511  160.1510 C.3     1  UNL1        0.0933
      5 C         139.7674  146.0088  155.3862 C.3     1  UNL1        0.1064
      6 O         138.5129  145.9245  154.5681 O.3     1  UNL1       -0.3827
      7 C         141.0916  146.5022  155.8893 C.3     1  UNL1        0.0325
      8 C         141.7793  145.7885  157.0152 C.3     1  UNL1        0.0187
      9 C         141.1428  144.5814  157.6379 C.3     1  UNL1        0.0578
     10 C         139.8186  144.0880  157.1348 C.3     1  UNL1        0.0187
     11 C         139.1309  144.8017  156.0089 C.3     1  UNL1        0.0325
     12 H         138.5017  146.6446  153.9183 H       1  UNL1        0.2107
     13 C         138.6609  148.6921  156.1450 C.3     1  UNL1        0.0308
     14 C         139.4150  148.5283  154.8587 C.ar    1  UNL1       -0.0240
     15 C         139.6158  149.7061  153.9518 C.ar    1  UNL1       -0.0045
     16 C         140.3699  149.5422  152.6655 C.ar    1  UNL1       -0.0007
     17 C         140.9231  148.2006  152.2861 C.ar    1  UNL1       -0.0045
     18 C         140.7223  147.0229  153.1930 C.ar    1  UNL1       -0.0240
     19 C         141.2755  145.6812  152.8136 C.3     1  UNL1        0.0308
     20 C         139.9682  147.1867  154.4793 C.ar    1  UNL1       -0.0062
     21 N         143.4908  142.1443  161.4818 N.am    1  UNL1       -0.3018
     22 C         144.3479  142.9120  162.4442 C.2     1  UNL1        0.2426
     23 O         144.5171  144.3934  162.2808 O.2     1  UNL1       -0.2733
     24 H         143.3797  141.1720  161.5890 H       1  UNL1        0.1495
     25 C         145.0356  142.1981  163.5701 C.3     1  UNL1        0.1759
     26 N         144.4062  142.1624  164.9311 N.am    1  UNL1       -0.2931
     27 C         143.1931  141.3143  165.1745 C.2     1  UNL1        0.2462
     28 O         142.6096  140.5018  164.0567 O.2     1  UNL1       -0.2701
     29 H         144.7892  142.6957  165.6647 H       1  UNL1        0.1502
     30 C         142.5637  141.2786  166.5355 C.ar    1  UNL1        0.0533
     31 C         141.3991  140.3710  166.7998 C.ar    1  UNL1        0.0045
     32 C         140.7697  140.3355  168.1609 C.ar    1  UNL1        0.0001
     33 C         141.3049  141.2075  169.2578 C.ar    1  UNL1        0.0039
     34 C         142.4695  142.1151  168.9935 C.ar    1  UNL1        0.0716
     35 C         143.0990  142.1507  167.6324 C.ar    1  UNL1        0.0084
     36 C         143.0047  142.9872  170.0904 C.3     1  UNL1        0.4186
     37 F         143.5400  143.8591  171.1872 F       1  UNL1       -0.1659
     38 F         141.7023  143.7298  170.1355 F       1  UNL1       -0.1659
     39 F         144.3072  142.2444  170.0452 F       1  UNL1       -0.1659
@<TRIPOS>BOND
     1    13    14    1
     2    14    15   ar
     3    15    16   ar
     4    16    17   ar
     5    17    18   ar
     6    18    19    1
     7    18    20   ar
     8    20     5    1
     9     5     6    1
    10     5     7    1
    11     7     8    1
    12     8     9    1
    13     9     1    1
    14     1     2    1
    15     2     3    1
    16     3    21    1
    17    21    22   am
    18    22    23    2
    19    22    25    1
    20    25    26    1
    21    26    27   am
    22    27    28    2
    23    27    30    1
    24    30    31   ar
    25    31    32   ar
    26    32    33   ar
    27    33    34   ar
    28    34    36    1
    29    36    37    1
    30    36    38    1
    31    36    39    1
    32    34    35   ar
    33     3     4    1
    34     9    10    1
    35    10    11    1
    36    20    14   ar
    37    11     5    1
    38     4     1    1
    39    35    30   ar
    40     6    12    1
    41    21    24    1
    42    26    29    1
@<TRIPOS>MOLECULE
*****
 39 42 0 0 0
SMALL
GASTEIGER

@<TRIPOS>ATOM
      1 N         140.9033  139.2713  163.1411 N.3     1  UNL1       -0.2711
      2 C         140.5635  138.0663  162.3148 C.3     1  UNL1        0.0933
      3 C         141.0886  138.7573  161.0914 C.3     1  UNL1        0.1035
      4 C         141.4284  139.9622  161.9178 C.3     1  UNL1        0.0933
      5 C         140.5097  140.3611  167.4894 C.3     1  UNL1        0.1064
      6 O         139.5731  140.1614  168.6438 O.3     1  UNL1       -0.3827
      7 C         141.7019  140.8235  166.7052 C.3     1  UNL1        0.0325
      8 C         141.8331  140.4602  165.2558 C.3     1  UNL1        0.0187
      9 C         140.7721  139.6346  164.5905 C.3     1  UNL1        0.0578
     10 C         139.5799  139.1722  165.3747 C.3     1  UNL1        0.0187
     11 C         139.4487  139.5355  166.8241 C.3     1  UNL1        0.0325
     12 H         139.9273  140.6080  169.4286 H       1  UNL1        0.2107
     13 C         142.4840  138.9403  169.2453 C.3     1  UNL1        0.0308
     14 C         142.2326  140.4070  169.4335 C.ar    1  UNL1       -0.0240
     15 C         142.9682  141.1634  170.4997 C.ar    1  UNL1       -0.0045
     16 C         142.7168  142.6301  170.6879 C.ar    1  UNL1       -0.0007
     17 C         141.7297  143.3405  169.8099 C.ar    1  UNL1       -0.0045
     18 C         140.9940  142.5842  168.7438 C.ar    1  UNL1       -0.0240
     19 C         140.0068  143.2946  167.8657 C.3     1  UNL1        0.0308
     20 C         141.2454  141.1174  168.5556 C.ar    1  UNL1       -0.0062
     21 N         141.2197  138.3939  159.6420 N.am    1  UNL1       -0.3018
     22 C         142.5790  138.2697  159.0199 C.2     1  UNL1        0.2426
     23 O         143.8071  138.5089  159.8472 O.2     1  UNL1       -0.2733
     24 H         140.4136  138.2369  159.0990 H       1  UNL1        0.1495
     25 C         142.7100  137.9063  157.5704 C.3     1  UNL1        0.1759
     26 N         143.1703  136.5330  157.1802 N.am    1  UNL1       -0.2931
     27 C         142.2977  135.6648  156.3230 C.2     1  UNL1        0.2462
     28 O         140.9648  136.1701  155.8560 O.2     1  UNL1       -0.2701
     29 H         144.0452  136.2015  157.4868 H       1  UNL1        0.1502
     30 C         142.7580  134.2916  155.9329 C.ar    1  UNL1        0.0533
     31 C         142.5020  133.7805  154.5461 C.ar    1  UNL1        0.0045
     32 C         142.9623  132.4073  154.1560 C.ar    1  UNL1        0.0001
     33 C         143.6787  131.5450  155.1527 C.ar    1  UNL1        0.0039
     34 C         143.9346  132.0561  156.5395 C.ar    1  UNL1        0.0716
     35 C         143.4743  133.4293  156.9297 C.ar    1  UNL1        0.0084
     36 C         144.6509  131.1938  157.5362 C.3     1  UNL1        0.4186
     37 F         145.3673  130.3316  158.5330 F       1  UNL1       -0.1659
     38 F         143.7911  130.0284  157.1460 F       1  UNL1       -0.1659
     39 F         145.5108  132.3594  157.9265 F       1  UNL1       -0.1659
@<TRIPOS>BOND
     1    13    14    1
     2    14    15   ar
     3    15    16   ar
     4    16    17   ar
     5    17    18   ar
     6    18    19    1
     7    18    20   ar
     8    20     5    1
     9     5     6    1
    10     5     7    1
    11     7     8    1
    12     8     9    1
    13     9     1    1
    14     1     2    1
    15     2     3    1
    16     3    21    1
    17    21    22   am
    18    22    23    2
    19    22    25    1
    20    25    26    1
    21    26    27   am
    22    27    28    2
    23    27    30    1
    24    30    31   ar
    25    31    32   ar
    26    32    33   ar
    27    33    34   ar
    28    34    36    1
    29    36    37    1
    30    36    38    1
    31    36    39    1
    32    34    35   ar
    33     3     4    1
    34     9    10    1
    35    10    11    1
    36    20    14   ar
    37    11     5    1
    38     4     1    1
    39    35    30   ar
    40     6    12    1
    41    21    24    1
    42    26    29    1
@<TRIPOS>MOLECULE
*****
 39 42 0 0 0
SMALL
GASTEIGER

@<TRIPOS>ATOM
      1 N         140.0038  139.7103  159.9270 N.3     1  UNL1       -0.2711
      2 C         140.2266  138.3837  159.2631 C.3     1  UNL1        0.0933
      3 C         140.6201  139.0838  157.9962 C.3     1  UNL1        0.1035
      4 C         140.3973  140.4104  158.6601 C.3     1  UNL1        0.0933
      5 C         138.6962  141.0388  164.0227 C.3     1  UNL1        0.1064
      6 O         137.4943  141.6072  164.7170 O.3     1  UNL1       -0.3827
      7 C         140.0838  140.5087  163.8136 C.3     1  UNL1        0.0325
      8 C         140.5197  140.0658  162.4484 C.3     1  UNL1        0.0187
      9 C         139.5680  140.1531  161.2922 C.3     1  UNL1        0.0578
     10 C         138.1805  140.6832  161.5013 C.3     1  UNL1        0.0187
     11 C         137.7446  141.1261  162.8665 C.3     1  UNL1        0.0325
     12 H         137.6952  141.7368  165.6571 H       1  UNL1        0.2107
     13 C         140.0912  143.5450  164.9022 C.3     1  UNL1        0.0308
     14 C         139.9280  142.4020  165.8597 C.ar    1  UNL1       -0.0240
     15 C         140.4622  142.5121  167.2570 C.ar    1  UNL1       -0.0045
     16 C         140.2990  141.3691  168.2146 C.ar    1  UNL1       -0.0007
     17 C         139.6015  140.1161  167.7749 C.ar    1  UNL1       -0.0045
     18 C         139.0673  140.0060  166.3776 C.ar    1  UNL1       -0.0240
     19 C         138.3698  138.7529  165.9378 C.3     1  UNL1        0.0308
     20 C         139.2305  141.1490  165.4200 C.ar    1  UNL1       -0.0062
     21 N         141.0559  138.6409  156.6310 N.am    1  UNL1       -0.3018
     22 C         142.5155  138.4802  156.3250 C.2     1  UNL1        0.2426
     23 O         143.5394  138.7624  157.3843 O.2     1  UNL1       -0.2733
     24 H         140.3839  138.4557  155.9358 H       1  UNL1        0.1495
     25 C         142.9513  138.0372  154.9597 C.3     1  UNL1        0.1759
     26 N         143.3095  136.6012  154.7160 N.am    1  UNL1       -0.2931
     27 C         142.2565  135.5377  154.8185 C.2     1  UNL1        0.2462
     28 O         140.8454  135.9105  155.1647 O.2     1  UNL1       -0.2701
     29 H         144.2356  136.3566  154.4888 H       1  UNL1        0.1502
     30 C         142.6147  134.1017  154.5748 C.ar    1  UNL1        0.0533
     31 C         142.2226  133.4388  153.2876 C.ar    1  UNL1        0.0045
     32 C         142.5808  132.0028  153.0440 C.ar    1  UNL1        0.0001
     33 C         143.3312  131.2295  154.0876 C.ar    1  UNL1        0.0039
     34 C         143.7233  131.8924  155.3748 C.ar    1  UNL1        0.0716
     35 C         143.3651  133.3284  155.6184 C.ar    1  UNL1        0.0084
     36 C         144.4737  131.1191  156.4183 C.3     1  UNL1        0.4186
     37 F         145.2241  130.3459  157.4619 F       1  UNL1       -0.1659
     38 F         145.2208  130.3902  155.3411 F       1  UNL1       -0.1659
     39 F         143.7266  131.8480  157.4956 F       1  UNL1       -0.1659
@<TRIPOS>BOND
     1    13    14    1
     2    14    15   ar
     3    15    16   ar
     4    16    17   ar
     5    17    18   ar
     6    18    19    1
     7    18    20   ar
     8    20     5    1
     9     5     6    1
    10     5     7    1
    11     7     8    1
    12     8     9    1
    13     9     1    1
    14     1     2    1
    15     2     3    1
    16     3    21    1
    17    21    22   am
    18    22    23    2
    19    22    25    1
    20    25    26    1
    21    26    27   am
    22    27    28    2
    23    27    30    1
    24    30    31   ar
    25    31    32   ar
    26    32    33   ar
    27    33    34   ar
    28    34    36    1
    29    36    37    1
    30    36    38    1
    31    36    39    1
    32    34    35   ar
    33     3     4    1
    34     9    10    1
    35    10    11    1
    36    20    14   ar
    37    11     5    1
    38     4     1    1
    39    35    30   ar
    40     6    12    1
    41    21    24    1
    42    26    29    1
@<TRIPOS>MOLECULE
*****
 39 42 0 0 0
SMALL
GASTEIGER

@<TRIPOS>ATOM
      1 N         141.4158  144.1915  159.3116 N.3     1  UNL1       -0.2711
      2 C         141.1643  144.5406  160.7486 C.3     1  UNL1        0.0933
      3 C         142.1356  143.4804  161.1760 C.3     1  UNL1        0.1035
      4 C         142.3870  143.1315  159.7390 C.3     1  UNL1        0.0933
      5 C         139.8884  145.7001  155.3566 C.3     1  UNL1        0.1064
      6 O         138.7796  145.4436  154.3796 O.3     1  UNL1       -0.3827
      7 C         141.1116  146.3132  155.9715 C.3     1  UNL1        0.0325
      8 C         141.6207  145.8104  157.2898 C.3     1  UNL1        0.0187
      9 C         140.9067  144.6944  157.9933 C.3     1  UNL1        0.0578
     10 C         139.6836  144.0813  157.3784 C.3     1  UNL1        0.0187
     11 C         139.1744  144.5841  156.0601 C.3     1  UNL1        0.0325
     12 H         138.8634  146.0516  153.6285 H       1  UNL1        0.2107
     13 C         138.7818  148.4791  155.5864 C.3     1  UNL1        0.0308
     14 C         139.6640  148.1164  154.4288 C.ar    1  UNL1       -0.0240
     15 C         139.9930  149.1433  153.3860 C.ar    1  UNL1       -0.0045
     16 C         140.8752  148.7807  152.2284 C.ar    1  UNL1       -0.0007
     17 C         141.4285  147.3912  152.1135 C.ar    1  UNL1       -0.0045
     18 C         141.0996  146.3644  153.1562 C.ar    1  UNL1       -0.0240
     19 C         141.6529  144.9749  153.0413 C.3     1  UNL1        0.0308
     20 C         140.2174  146.7270  154.3139 C.ar    1  UNL1       -0.0062
     21 N         142.6446  142.9776  162.4943 N.am    1  UNL1       -0.3018
     22 C         143.7483  143.7082  163.2002 C.2     1  UNL1        0.2426
     23 O         144.3429  144.9415  162.5877 O.2     1  UNL1       -0.2733
     24 H         142.2543  142.1681  162.8963 H       1  UNL1        0.1495
     25 C         144.2573  143.2053  164.5186 C.3     1  UNL1        0.1759
     26 N         143.2907  142.8454  165.6077 N.am    1  UNL1       -0.2931
     27 C         142.6503  141.4890  165.6242 C.2     1  UNL1        0.2462
     28 O         142.9765  140.4927  164.5514 O.2     1  UNL1       -0.2701
     29 H         143.0766  143.4994  166.3118 H       1  UNL1        0.1502
     30 C         141.6837  141.1292  166.7133 C.ar    1  UNL1        0.0533
     31 C         141.9048  141.6324  168.1089 C.ar    1  UNL1        0.0045
     32 C         140.9383  141.2725  169.1979 C.ar    1  UNL1        0.0001
     33 C         139.7504  140.4093  168.8914 C.ar    1  UNL1        0.0039
     34 C         139.5293  139.9060  167.4958 C.ar    1  UNL1        0.0716
     35 C         140.4958  140.2659  166.4067 C.ar    1  UNL1        0.0084
     36 C         138.3414  139.0428  167.1893 C.3     1  UNL1        0.4186
     37 F         137.1536  138.1796  166.8827 F       1  UNL1       -0.1659
     38 F         137.8261  139.2576  168.5814 F       1  UNL1       -0.1659
     39 F         138.8568  138.8280  165.7970 F       1  UNL1       -0.1659
@<TRIPOS>BOND
     1    13    14    1
     2    14    15   ar
     3    15    16   ar
     4    16    17   ar
     5    17    18   ar
     6    18    19    1
     7    18    20   ar
     8    20     5    1
     9     5     6    1
    10     5     7    1
    11     7     8    1
    12     8     9    1
    13     9     1    1
    14     1     2    1
    15     2     3    1
    16     3    21    1
    17    21    22   am
    18    22    23    2
    19    22    25    1
    20    25    26    1
    21    26    27   am
    22    27    28    2
    23    27    30    1
    24    30    31   ar
    25    31    32   ar
    26    32    33   ar
    27    33    34   ar
    28    34    36    1
    29    36    37    1
    30    36    38    1
    31    36    39    1
    32    34    35   ar
    33     3     4    1
    34     9    10    1
    35    10    11    1
    36    20    14   ar
    37    11     5    1
    38     4     1    1
    39    35    30   ar
    40     6    12    1
    41    21    24    1
    42    26    29    1
