@<TRIPOS>MOLECULE
*****
 38 40 0 0 0
SMALL
GASTEIGER

@<TRIPOS>ATOM
      1 C         139.9242  144.0329  157.8184 C.3     1  UNL1        0.0577
      2 C         140.2060  145.3600  158.4581 C.3     1  UNL1        0.0177
      3 C         140.3603  145.4572  159.9470 C.3     1  UNL1        0.0211
      4 C         140.2328  144.2273  160.7961 C.3     1  UNL1        0.0752
      5 C         139.9510  142.9002  160.1564 C.3     1  UNL1        0.0630
      6 C         139.7967  142.8030  158.6675 C.3     1  UNL1        0.0213
      7 N         140.3871  144.3245  162.2850 N.am    1  UNL1       -0.3045
      8 C         139.2052  144.6732  163.1403 C.2     1  UNL1        0.2425
      9 O         137.8690  144.9247  162.5067 O.2     1  UNL1       -0.2733
     10 H         141.2641  144.1595  162.7008 H       1  UNL1        0.1494
     11 C         139.3595  144.7704  164.6292 C.3     1  UNL1        0.1759
     12 N         139.7087  143.5499  165.4283 N.am    1  UNL1       -0.2931
     13 C         141.1234  143.0523  165.4580 C.2     1  UNL1        0.2462
     14 O         142.1890  143.7753  164.6886 O.2     1  UNL1       -0.2701
     15 H         139.0093  143.0755  165.9332 H       1  UNL1        0.1502
     16 C         141.4726  141.8319  166.2570 C.ar    1  UNL1        0.0533
     17 C         142.5250  140.8857  165.7599 C.ar    1  UNL1        0.0045
     18 C         142.8741  139.6652  166.5590 C.ar    1  UNL1        0.0001
     19 C         142.1709  139.3909  167.8552 C.ar    1  UNL1        0.0039
     20 C         141.1185  140.3371  168.3524 C.ar    1  UNL1        0.0716
     21 C         140.7694  141.5576  167.5533 C.ar    1  UNL1        0.0084
     22 C         140.4153  140.0629  169.6486 C.3     1  UNL1        0.4186
     23 F         139.7120  139.7887  170.9449 F       1  UNL1       -0.1659
     24 F         139.3596  141.0655  169.2880 F       1  UNL1       -0.1659
     25 F         141.4711  139.0603  170.0093 F       1  UNL1       -0.1659
     26 N         139.7699  143.9357  156.3295 N.3     1  UNL1       -0.2741
     27 C         140.9518  143.5873  155.4742 C.3     1  UNL1        0.0896
     28 C         137.4184  143.0850  155.6248 C.3     1  UNL1        0.0173
     29 C         138.4337  144.1869  155.6960 C.3     1  UNL1        0.0576
     30 C         138.1128  145.5400  155.1336 C.3     1  UNL1        0.0173
     31 C         139.8235  141.6702  161.0055 C.3     1  UNL1        0.2070
     32 O         138.8336  141.6358  162.1319 O.3     1  UNL1       -0.4754
     33 C         138.9916  140.6361  163.2390 C.ar    1  UNL1        0.1386
     34 C         140.0319  139.5604  163.1353 C.ar    1  UNL1        0.0369
     35 C         140.1899  138.5607  164.2424 C.ar    1  UNL1        0.0031
     36 C         139.3076  138.6367  165.4531 C.ar    1  UNL1        0.0002
     37 C         138.2673  139.7123  165.5568 C.ar    1  UNL1        0.0031
     38 C         138.1094  140.7120  164.4497 C.ar    1  UNL1        0.0369
@<TRIPOS>BOND
     1    28    29    1
     2    29    30    1
     3    29    26    1
     4    26    27    1
     5     1    26    1
     6     1     2    1
     7     2     3    1
     8     3     4    1
     9     4     7    1
    10     7     8   am
    11     8     9    2
    12     8    11    1
    13    11    12    1
    14    12    13   am
    15    13    14    2
    16    13    16    1
    17    16    17   ar
    18    17    18   ar
    19    18    19   ar
    20    19    20   ar
    21    20    22    1
    22    22    23    1
    23    22    24    1
    24    22    25    1
    25    20    21   ar
    26     4     5    1
    27     5    31    1
    28    31    32    1
    29    32    33    1
    30    33    34   ar
    31    34    35   ar
    32    35    36   ar
    33    36    37   ar
    34    37    38   ar
    35     5     6    1
    36     6     1    1
    37    21    16   ar
    38    38    33   ar
    39     7    10    1
    40    12    15    1
@<TRIPOS>MOLECULE
*****
 38 40 0 0 0
SMALL
GASTEIGER

@<TRIPOS>ATOM
      1 C         138.1872  142.7661  157.5806 C.3     1  UNL1        0.0577
      2 C         139.3068  143.7632  157.5338 C.3     1  UNL1        0.0177
      3 C         140.1187  144.0377  158.7648 C.3     1  UNL1        0.0211
      4 C         139.8110  143.3151  160.0427 C.3     1  UNL1        0.0752
      5 C         138.6914  142.3180  160.0896 C.3     1  UNL1        0.0630
      6 C         137.8795  142.0435  158.8585 C.3     1  UNL1        0.0213
      7 N         140.6229  143.5895  161.2738 N.am    1  UNL1       -0.3045
      8 C         140.3308  144.7997  162.1105 C.2     1  UNL1        0.2425
      9 O         139.2267  145.7355  161.7161 O.2     1  UNL1       -0.2733
     10 H         141.3475  142.9754  161.5326 H       1  UNL1        0.1494
     11 C         141.1427  145.0742  163.3415 C.3     1  UNL1        0.1759
     12 N         140.9632  144.2230  164.5635 N.am    1  UNL1       -0.2931
     13 C         141.6296  142.8818  164.6478 C.2     1  UNL1        0.2462
     14 O         142.4755  142.3918  163.5101 O.2     1  UNL1       -0.2701
     15 H         140.4080  144.5446  165.3103 H       1  UNL1        0.1502
     16 C         141.4501  142.0306  165.8698 C.ar    1  UNL1        0.0533
     17 C         141.9395  140.6127  165.8746 C.ar    1  UNL1        0.0045
     18 C         141.7599  139.7615  167.0967 C.ar    1  UNL1        0.0001
     19 C         141.0911  140.3282  168.3138 C.ar    1  UNL1        0.0039
     20 C         140.6017  141.7461  168.3089 C.ar    1  UNL1        0.0716
     21 C         140.7812  142.5973  167.0870 C.ar    1  UNL1        0.0084
     22 C         139.9329  142.3129  169.5261 C.3     1  UNL1        0.4186
     23 F         139.2640  142.8796  170.7433 F       1  UNL1       -0.1659
     24 F         139.4527  140.9421  169.9005 F       1  UNL1       -0.1659
     25 F         140.4131  143.6837  169.1516 F       1  UNL1       -0.1659
     26 N         137.3753  142.4916  156.3496 N.3     1  UNL1       -0.2741
     27 C         137.0050  143.6165  155.4291 C.3     1  UNL1        0.0896
     28 C         137.9434  140.0593  155.6347 C.3     1  UNL1        0.0173
     29 C         136.9336  141.0922  156.0391 C.3     1  UNL1        0.0576
     30 C         135.4820  140.7256  156.1329 C.3     1  UNL1        0.0173
     31 C         138.3836  141.5953  161.3676 C.3     1  UNL1        0.2070
     32 O         139.4993  141.1647  162.2731 O.3     1  UNL1       -0.4754
     33 C         139.2285  140.2026  163.3916 C.ar    1  UNL1        0.1386
     34 C         139.7855  138.8110  163.3353 C.ar    1  UNL1        0.0369
     35 C         139.5147  137.8490  164.4539 C.ar    1  UNL1        0.0031
     36 C         138.6869  138.2786  165.6287 C.ar    1  UNL1        0.0002
     37 C         138.1299  139.6701  165.6850 C.ar    1  UNL1        0.0031
     38 C         138.4007  140.6322  164.5664 C.ar    1  UNL1        0.0369
@<TRIPOS>BOND
     1    28    29    1
     2    29    30    1
     3    29    26    1
     4    26    27    1
     5     1    26    1
     6     1     2    1
     7     2     3    1
     8     3     4    1
     9     4     7    1
    10     7     8   am
    11     8     9    2
    12     8    11    1
    13    11    12    1
    14    12    13   am
    15    13    14    2
    16    13    16    1
    17    16    17   ar
    18    17    18   ar
    19    18    19   ar
    20    19    20   ar
    21    20    22    1
    22    22    23    1
    23    22    24    1
    24    22    25    1
    25    20    21   ar
    26     4     5    1
    27     5    31    1
    28    31    32    1
    29    32    33    1
    30    33    34   ar
    31    34    35   ar
    32    35    36   ar
    33    36    37   ar
    34    37    38   ar
    35     5     6    1
    36     6     1    1
    37    21    16   ar
    38    38    33   ar
    39     7    10    1
    40    12    15    1
@<TRIPOS>MOLECULE
*****
 38 40 0 0 0
SMALL
GASTEIGER

@<TRIPOS>ATOM
      1 C         140.2306  144.8264  156.2744 C.3     1  UNL1        0.0577
      2 C         141.2091  145.8748  156.7142 C.3     1  UNL1        0.0177
      3 C         141.6830  145.9087  158.1369 C.3     1  UNL1        0.0211
      4 C         141.1786  144.8943  159.1199 C.3     1  UNL1        0.0752
      5 C         140.2001  143.8459  158.6802 C.3     1  UNL1        0.0630
      6 C         139.7261  143.8119  157.2574 C.3     1  UNL1        0.0213
      7 N         141.6525  144.9282  160.5427 N.am    1  UNL1       -0.3045
      8 C         140.7917  145.5440  161.6055 C.2     1  UNL1        0.2425
      9 O         139.4567  146.1258  161.2456 O.2     1  UNL1       -0.2733
     10 H         142.5287  144.5463  160.7789 H       1  UNL1        0.1494
     11 C         141.2656  145.5779  163.0282 C.3     1  UNL1        0.1759
     12 N         140.8912  144.4720  163.9701 N.am    1  UNL1       -0.2931
     13 C         141.5662  143.1366  163.8649 C.2     1  UNL1        0.2462
     14 O         142.6156  142.9071  162.8179 O.2     1  UNL1       -0.2701
     15 H         140.2025  144.6227  164.6572 H       1  UNL1        0.1502
     16 C         141.1918  142.0308  164.8067 C.ar    1  UNL1        0.0533
     17 C         140.6764  142.3554  166.1775 C.ar    1  UNL1        0.0045
     18 C         140.3021  141.2495  167.1193 C.ar    1  UNL1        0.0001
     19 C         140.4431  139.8191  166.6902 C.ar    1  UNL1        0.0039
     20 C         140.9585  139.4945  165.3195 C.ar    1  UNL1        0.0716
     21 C         141.3329  140.6003  164.3777 C.ar    1  UNL1        0.0084
     22 C         141.0996  138.0642  164.8905 C.3     1  UNL1        0.4186
     23 F         141.2406  136.6337  164.4614 F       1  UNL1       -0.1659
     24 F         139.6300  137.8547  165.1058 F       1  UNL1       -0.1659
     25 F         142.5691  138.2737  164.6751 F       1  UNL1       -0.1659
     26 N         139.7566  144.7925  154.8517 N.3     1  UNL1       -0.2741
     27 C         140.4754  145.5878  153.8025 C.3     1  UNL1        0.0896
     28 C         138.7549  142.5941  153.8959 C.3     1  UNL1        0.0173
     29 C         138.5639  143.9632  154.4781 C.3     1  UNL1        0.0576
     30 C         137.1800  144.5031  154.6867 C.3     1  UNL1        0.0173
     31 C         139.6956  142.8313  159.6632 C.3     1  UNL1        0.2070
     32 O         138.3735  143.0369  160.3412 O.3     1  UNL1       -0.4754
     33 C         138.1253  142.4435  161.6964 C.ar    1  UNL1        0.1386
     34 C         138.1660  140.9556  161.8825 C.ar    1  UNL1        0.0369
     35 C         137.9178  140.3623  163.2376 C.ar    1  UNL1        0.0031
     36 C         137.6290  141.2568  164.4066 C.ar    1  UNL1        0.0002
     37 C         137.5883  142.7446  164.2204 C.ar    1  UNL1        0.0031
     38 C         137.8365  143.3380  162.8653 C.ar    1  UNL1        0.0369
@<TRIPOS>BOND
     1    28    29    1
     2    29    30    1
     3    29    26    1
     4    26    27    1
     5     1    26    1
     6     1     2    1
     7     2     3    1
     8     3     4    1
     9     4     7    1
    10     7     8   am
    11     8     9    2
    12     8    11    1
    13    11    12    1
    14    12    13   am
    15    13    14    2
    16    13    16    1
    17    16    17   ar
    18    17    18   ar
    19    18    19   ar
    20    19    20   ar
    21    20    22    1
    22    22    23    1
    23    22    24    1
    24    22    25    1
    25    20    21   ar
    26     4     5    1
    27     5    31    1
    28    31    32    1
    29    32    33    1
    30    33    34   ar
    31    34    35   ar
    32    35    36   ar
    33    36    37   ar
    34    37    38   ar
    35     5     6    1
    36     6     1    1
    37    21    16   ar
    38    38    33   ar
    39     7    10    1
    40    12    15    1
@<TRIPOS>MOLECULE
*****
 38 40 0 0 0
SMALL
GASTEIGER

@<TRIPOS>ATOM
      1 C         144.4098  141.8946  157.4820 C.3     1  UNL1        0.0577
      2 C         143.6417  143.1773  157.3610 C.3     1  UNL1        0.0177
      3 C         142.6137  143.5360  158.3928 C.3     1  UNL1        0.0211
      4 C         142.3539  142.6122  159.5456 C.3     1  UNL1        0.0752
      5 C         143.1220  141.3295  159.6665 C.3     1  UNL1        0.0630
      6 C         144.1500  140.9707  158.6347 C.3     1  UNL1        0.0213
      7 N         141.3259  142.9709  160.5773 N.am    1  UNL1       -0.3045
      8 C         141.6576  143.9616  161.6536 C.2     1  UNL1        0.2425
      9 O         143.0173  144.5936  161.6982 O.2     1  UNL1       -0.2733
     10 H         140.4335  142.5562  160.5481 H       1  UNL1        0.1494
     11 C         140.6296  144.3204  162.6854 C.3     1  UNL1        0.1759
     12 N         140.5543  143.5482  163.9692 N.am    1  UNL1       -0.2931
     13 C         139.7278  142.2988  164.0455 C.2     1  UNL1        0.2462
     14 O         138.9766  141.8216  162.8380 O.2     1  UNL1       -0.2701
     15 H         141.0473  143.8614  164.7617 H       1  UNL1        0.1502
     16 C         139.6524  141.5266  165.3292 C.ar    1  UNL1        0.0533
     17 C         140.3836  142.0171  166.5436 C.ar    1  UNL1        0.0045
     18 C         140.3082  141.2448  167.8274 C.ar    1  UNL1        0.0001
     19 C         139.5017  139.9821  167.8967 C.ar    1  UNL1        0.0039
     20 C         138.7705  139.4915  166.6823 C.ar    1  UNL1        0.0716
     21 C         138.8459  140.2637  165.3986 C.ar    1  UNL1        0.0084
     22 C         137.9640  138.2287  166.7517 C.3     1  UNL1        0.4186
     23 F         137.1574  136.9659  166.8210 F       1  UNL1       -0.1659
     24 F         138.5890  137.7593  165.4715 F       1  UNL1       -0.1659
     25 F         137.3390  138.6982  168.0319 F       1  UNL1       -0.1659
     26 N         145.4378  141.5358  156.4502 N.3     1  UNL1       -0.2741
     27 C         145.1157  140.5238  155.3909 C.3     1  UNL1        0.0896
     28 C         147.7437  141.9835  155.3402 C.3     1  UNL1        0.0173
     29 C         146.7877  142.1891  156.4777 C.3     1  UNL1        0.0576
     30 C         147.1818  143.0480  157.6427 C.3     1  UNL1        0.0173
     31 C         142.8622  140.4055  160.8193 C.3     1  UNL1        0.2070
     32 O         142.3232  140.9489  162.1093 O.3     1  UNL1       -0.4754
     33 C         142.3971  140.1238  163.3599 C.ar    1  UNL1        0.1386
     34 C         143.2274  140.5907  164.5185 C.ar    1  UNL1        0.0369
     35 C         143.3012  139.7656  165.7690 C.ar    1  UNL1        0.0031
     36 C         142.5447  138.4736  165.8608 C.ar    1  UNL1        0.0002
     37 C         141.7144  138.0067  164.7021 C.ar    1  UNL1        0.0031
     38 C         141.6406  138.8318  163.4517 C.ar    1  UNL1        0.0369
@<TRIPOS>BOND
     1    28    29    1
     2    29    30    1
     3    29    26    1
     4    26    27    1
     5     1    26    1
     6     1     2    1
     7     2     3    1
     8     3     4    1
     9     4     7    1
    10     7     8   am
    11     8     9    2
    12     8    11    1
    13    11    12    1
    14    12    13   am
    15    13    14    2
    16    13    16    1
    17    16    17   ar
    18    17    18   ar
    19    18    19   ar
    20    19    20   ar
    21    20    22    1
    22    22    23    1
    23    22    24    1
    24    22    25    1
    25    20    21   ar
    26     4     5    1
    27     5    31    1
    28    31    32    1
    29    32    33    1
    30    33    34   ar
    31    34    35   ar
    32    35    36   ar
    33    36    37   ar
    34    37    38   ar
    35     5     6    1
    36     6     1    1
    37    21    16   ar
    38    38    33   ar
    39     7    10    1
    40    12    15    1
@<TRIPOS>MOLECULE
*****
 38 40 0 0 0
SMALL
GASTEIGER

@<TRIPOS>ATOM
      1 C         138.4853  142.8386  157.3536 C.3     1  UNL1        0.0577
      2 C         139.5902  143.8527  157.3802 C.3     1  UNL1        0.0177
      3 C         140.2908  144.1649  158.6693 C.3     1  UNL1        0.0211
      4 C         139.8864  143.4630  159.9318 C.3     1  UNL1        0.0752
      5 C         138.7815  142.4490  159.9051 C.3     1  UNL1        0.0630
      6 C         138.0810  142.1367  158.6160 C.3     1  UNL1        0.0213
      7 N         140.5870  143.7753  161.2208 N.am    1  UNL1       -0.3045
      8 C         140.2891  145.0543  161.9456 C.2     1  UNL1        0.2425
      9 O         139.2907  146.0211  161.3814 O.2     1  UNL1       -0.2733
     10 H         141.2423  143.1407  161.5912 H       1  UNL1        0.1494
     11 C         140.9897  145.3665  163.2347 C.3     1  UNL1        0.1759
     12 N         140.8687  144.4297  164.4001 N.am    1  UNL1       -0.2931
     13 C         141.7224  143.1979  164.4638 C.2     1  UNL1        0.2462
     14 O         142.6969  142.9030  163.3623 O.2     1  UNL1       -0.2701
     15 H         140.2291  144.6233  165.1230 H       1  UNL1        0.1502
     16 C         141.6015  142.2612  165.6291 C.ar    1  UNL1        0.0533
     17 C         140.6510  142.5732  166.7467 C.ar    1  UNL1        0.0045
     18 C         140.5301  141.6363  167.9120 C.ar    1  UNL1        0.0001
     19 C         141.3597  140.3876  167.9596 C.ar    1  UNL1        0.0039
     20 C         142.3102  140.0756  166.8419 C.ar    1  UNL1        0.0716
     21 C         142.4311  141.0124  165.6767 C.ar    1  UNL1        0.0084
     22 C         143.1399  138.8269  166.8895 C.3     1  UNL1        0.4186
     23 F         143.9695  137.5781  166.9370 F       1  UNL1       -0.1659
     24 F         143.3853  138.9337  165.4136 F       1  UNL1       -0.1659
     25 F         142.8944  138.7200  168.3654 F       1  UNL1       -0.1659
     26 N         137.7848  142.5264  156.0645 N.3     1  UNL1       -0.2741
     27 C         137.7189  143.5581  154.9777 C.3     1  UNL1        0.0896
     28 C         135.6715  141.0151  156.0517 C.3     1  UNL1        0.0173
     29 C         137.1501  141.1825  155.8622 C.3     1  UNL1        0.0576
     30 C         137.9939  140.0058  155.4704 C.3     1  UNL1        0.0173
     31 C         138.3771  141.7470  161.1676 C.3     1  UNL1        0.2070
     32 O         139.2636  141.8070  162.3761 O.3     1  UNL1       -0.4754
     33 C         139.2169  140.7080  163.3959 C.ar    1  UNL1        0.1386
     34 C         140.1088  139.5108  163.2499 C.ar    1  UNL1        0.0369
     35 C         140.0620  138.4119  164.2696 C.ar    1  UNL1        0.0031
     36 C         139.1233  138.5100  165.4355 C.ar    1  UNL1        0.0002
     37 C         138.2314  139.7071  165.5815 C.ar    1  UNL1        0.0031
     38 C         138.2782  140.8061  164.5618 C.ar    1  UNL1        0.0369
@<TRIPOS>BOND
     1    28    29    1
     2    29    30    1
     3    29    26    1
     4    26    27    1
     5     1    26    1
     6     1     2    1
     7     2     3    1
     8     3     4    1
     9     4     7    1
    10     7     8   am
    11     8     9    2
    12     8    11    1
    13    11    12    1
    14    12    13   am
    15    13    14    2
    16    13    16    1
    17    16    17   ar
    18    17    18   ar
    19    18    19   ar
    20    19    20   ar
    21    20    22    1
    22    22    23    1
    23    22    24    1
    24    22    25    1
    25    20    21   ar
    26     4     5    1
    27     5    31    1
    28    31    32    1
    29    32    33    1
    30    33    34   ar
    31    34    35   ar
    32    35    36   ar
    33    36    37   ar
    34    37    38   ar
    35     5     6    1
    36     6     1    1
    37    21    16   ar
    38    38    33   ar
    39     7    10    1
    40    12    15    1
@<TRIPOS>MOLECULE
*****
 38 40 0 0 0
SMALL
GASTEIGER

@<TRIPOS>ATOM
      1 C         140.1055  144.5595  157.2867 C.3     1  UNL1        0.0577
      2 C         141.0781  145.6157  157.7206 C.3     1  UNL1        0.0177
      3 C         141.4093  145.7786  159.1745 C.3     1  UNL1        0.0211
      4 C         140.7678  144.8852  160.1945 C.3     1  UNL1        0.0752
      5 C         139.7953  143.8290  159.7606 C.3     1  UNL1        0.0630
      6 C         139.4641  143.6661  158.3067 C.3     1  UNL1        0.0213
      7 N         141.0990  145.0481  161.6484 N.am    1  UNL1       -0.3045
      8 C         142.4038  144.5358  162.1824 C.2     1  UNL1        0.2425
      9 O         143.3774  143.8606  161.2624 O.2     1  UNL1       -0.2733
     10 H         140.4600  145.4913  162.2522 H       1  UNL1        0.1494
     11 C         142.7350  144.6987  163.6362 C.3     1  UNL1        0.1759
     12 N         142.3335  143.6399  164.6201 N.am    1  UNL1       -0.2931
     13 C         140.8900  143.4681  164.9897 C.2     1  UNL1        0.2462
     14 O         139.8478  144.3552  164.3755 O.2     1  UNL1       -0.2701
     15 H         143.0175  143.0577  165.0232 H       1  UNL1        0.1502
     16 C         140.4885  142.4094  165.9735 C.ar    1  UNL1        0.0533
     17 C         140.6643  142.6467  167.4442 C.ar    1  UNL1        0.0045
     18 C         140.2628  141.5879  168.4280 C.ar    1  UNL1        0.0001
     19 C         139.6856  140.2919  167.9411 C.ar    1  UNL1        0.0039
     20 C         139.5098  140.0546  166.4705 C.ar    1  UNL1        0.0716
     21 C         139.9113  141.1133  165.4867 C.ar    1  UNL1        0.0084
     22 C         138.9326  138.7585  165.9836 C.3     1  UNL1        0.4186
     23 F         138.3554  137.4624  165.4967 F       1  UNL1       -0.1659
     24 F         140.2961  138.3179  165.5400 F       1  UNL1       -0.1659
     25 F         137.5692  139.1991  166.4272 F       1  UNL1       -0.1659
     26 N         139.7743  144.3966  155.8329 N.3     1  UNL1       -0.2741
     27 C         140.4433  143.3229  155.0269 C.3     1  UNL1        0.0896
     28 C         139.1591  146.7130  154.8300 C.3     1  UNL1        0.0173
     29 C         138.7740  145.3074  155.1849 C.3     1  UNL1        0.0576
     30 C         137.3886  144.8126  154.8918 C.3     1  UNL1        0.0173
     31 C         139.1538  142.9355  160.7806 C.3     1  UNL1        0.2070
     32 O         140.0070  142.1461  161.7286 O.3     1  UNL1       -0.4754
     33 C         139.7346  140.6870  161.9454 C.ar    1  UNL1        0.1386
     34 C         138.3238  140.2027  162.1031 C.ar    1  UNL1        0.0369
     35 C         138.0515  138.7437  162.3199 C.ar    1  UNL1        0.0031
     36 C         139.1901  137.7689  162.3789 C.ar    1  UNL1        0.0002
     37 C         140.6010  138.2532  162.2212 C.ar    1  UNL1        0.0031
     38 C         140.8732  139.7122  162.0045 C.ar    1  UNL1        0.0369
@<TRIPOS>BOND
     1    28    29    1
     2    29    30    1
     3    29    26    1
     4    26    27    1
     5     1    26    1
     6     1     2    1
     7     2     3    1
     8     3     4    1
     9     4     7    1
    10     7     8   am
    11     8     9    2
    12     8    11    1
    13    11    12    1
    14    12    13   am
    15    13    14    2
    16    13    16    1
    17    16    17   ar
    18    17    18   ar
    19    18    19   ar
    20    19    20   ar
    21    20    22    1
    22    22    23    1
    23    22    24    1
    24    22    25    1
    25    20    21   ar
    26     4     5    1
    27     5    31    1
    28    31    32    1
    29    32    33    1
    30    33    34   ar
    31    34    35   ar
    32    35    36   ar
    33    36    37   ar
    34    37    38   ar
    35     5     6    1
    36     6     1    1
    37    21    16   ar
    38    38    33   ar
    39     7    10    1
    40    12    15    1
@<TRIPOS>MOLECULE
*****
 38 40 0 0 0
SMALL
GASTEIGER

@<TRIPOS>ATOM
      1 C         141.8678  137.3410  157.1740 C.3     1  UNL1        0.0577
      2 C         140.3871  137.5807  157.1788 C.3     1  UNL1        0.0177
      3 C         139.7689  138.4340  158.2464 C.3     1  UNL1        0.0211
      4 C         140.6314  139.0475  159.3092 C.3     1  UNL1        0.0752
      5 C         142.1121  138.8078  159.3044 C.3     1  UNL1        0.0630
      6 C         142.7303  137.9546  158.2367 C.3     1  UNL1        0.0213
      7 N         140.0133  139.9008  160.3768 N.am    1  UNL1       -0.3045
      8 C         139.8100  141.3680  160.1402 C.2     1  UNL1        0.2425
      9 O         140.2248  141.9820  158.8360 O.2     1  UNL1       -0.2733
     10 H         139.7410  139.4979  161.2328 H       1  UNL1        0.1494
     11 C         139.1918  142.2213  161.2078 C.3     1  UNL1        0.1759
     12 N         139.0218  141.6794  162.5962 N.am    1  UNL1       -0.2931
     13 C         140.1349  141.8089  163.5934 C.2     1  UNL1        0.2462
     14 O         141.4179  142.4804  163.2021 O.2     1  UNL1       -0.2701
     15 H         138.1797  141.2388  162.8530 H       1  UNL1        0.1502
     16 C         139.9649  141.2671  164.9817 C.ar    1  UNL1        0.0533
     17 C         140.7526  141.8516  166.1166 C.ar    1  UNL1        0.0045
     18 C         140.5826  141.3097  167.5049 C.ar    1  UNL1        0.0001
     19 C         139.6250  140.1834  167.7584 C.ar    1  UNL1        0.0039
     20 C         138.8372  139.5990  166.6236 C.ar    1  UNL1        0.0716
     21 C         139.0072  140.1408  165.2352 C.ar    1  UNL1        0.0084
     22 C         137.8796  138.4727  166.8770 C.3     1  UNL1        0.4186
     23 F         136.9219  137.3463  167.1305 F       1  UNL1       -0.1659
     24 F         138.1414  137.9400  165.4995 F       1  UNL1       -0.1659
     25 F         137.6177  139.0053  168.2546 F       1  UNL1       -0.1659
     26 N         142.4859  136.4877  156.1064 N.3     1  UNL1       -0.2741
     27 C         143.0934  137.1273  154.8932 C.3     1  UNL1        0.0896
     28 C         141.5832  134.1528  155.4113 C.3     1  UNL1        0.0173
     29 C         142.4966  134.9949  156.2519 C.3     1  UNL1        0.0576
     30 C         143.4207  134.3440  157.2381 C.3     1  UNL1        0.0173
     31 C         142.9747  139.4214  160.3672 C.3     1  UNL1        0.2070
     32 O         143.7033  138.5436  161.3411 O.3     1  UNL1       -0.4754
     33 C         143.2954  138.5249  162.7845 C.ar    1  UNL1        0.1386
     34 C         142.0415  137.8143  163.2004 C.ar    1  UNL1        0.0369
     35 C         141.6336  137.7956  164.6437 C.ar    1  UNL1        0.0031
     36 C         142.4796  138.4874  165.6712 C.ar    1  UNL1        0.0002
     37 C         143.7334  139.1980  165.2553 C.ar    1  UNL1        0.0031
     38 C         144.1413  139.2168  163.8120 C.ar    1  UNL1        0.0369
@<TRIPOS>BOND
     1    28    29    1
     2    29    30    1
     3    29    26    1
     4    26    27    1
     5     1    26    1
     6     1     2    1
     7     2     3    1
     8     3     4    1
     9     4     7    1
    10     7     8   am
    11     8     9    2
    12     8    11    1
    13    11    12    1
    14    12    13   am
    15    13    14    2
    16    13    16    1
    17    16    17   ar
    18    17    18   ar
    19    18    19   ar
    20    19    20   ar
    21    20    22    1
    22    22    23    1
    23    22    24    1
    24    22    25    1
    25    20    21   ar
    26     4     5    1
    27     5    31    1
    28    31    32    1
    29    32    33    1
    30    33    34   ar
    31    34    35   ar
    32    35    36   ar
    33    36    37   ar
    34    37    38   ar
    35     5     6    1
    36     6     1    1
    37    21    16   ar
    38    38    33   ar
    39     7    10    1
    40    12    15    1
@<TRIPOS>MOLECULE
*****
 38 40 0 0 0
SMALL
GASTEIGER

@<TRIPOS>ATOM
      1 C         140.2085  144.8241  157.9147 C.3     1  UNL1        0.0577
      2 C         139.2980  143.6361  157.8172 C.3     1  UNL1        0.0177
      3 C         139.1301  142.7213  158.9941 C.3     1  UNL1        0.0211
      4 C         139.8725  142.9947  160.2684 C.3     1  UNL1        0.0752
      5 C         140.7830  144.1827  160.3659 C.3     1  UNL1        0.0630
      6 C         140.9510  145.0974  159.1890 C.3     1  UNL1        0.0213
      7 N         139.7046  142.0799  161.4453 N.am    1  UNL1       -0.3045
      8 C         138.6192  142.3390  162.4477 C.2     1  UNL1        0.2425
      9 O         137.7017  143.5129  162.2732 O.2     1  UNL1       -0.2733
     10 H         140.3067  141.3095  161.5599 H       1  UNL1        0.1494
     11 C         138.4512  141.4243  163.6246 C.3     1  UNL1        0.1759
     12 N         139.0659  141.7811  164.9455 N.am    1  UNL1       -0.2931
     13 C         140.5448  141.6342  165.1487 C.2     1  UNL1        0.2462
     14 O         141.4090  141.1304  164.0309 O.2     1  UNL1       -0.2701
     15 H         138.4987  142.1117  165.6792 H       1  UNL1        0.1502
     16 C         141.1595  141.9910  166.4696 C.ar    1  UNL1        0.0533
     17 C         142.6486  141.9389  166.6424 C.ar    1  UNL1        0.0045
     18 C         143.2633  142.2957  167.9633 C.ar    1  UNL1        0.0001
     19 C         142.3889  142.7045  169.1115 C.ar    1  UNL1        0.0039
     20 C         140.8998  142.7566  168.9387 C.ar    1  UNL1        0.0716
     21 C         140.2851  142.3998  167.6178 C.ar    1  UNL1        0.0084
     22 C         140.0254  143.1654  170.0868 C.3     1  UNL1        0.4186
     23 F         139.1509  143.5743  171.2350 F       1  UNL1       -0.1659
     24 F         140.5409  144.5699  169.9793 F       1  UNL1       -0.1659
     25 F         139.5098  141.7610  170.1943 F       1  UNL1       -0.1659
     26 N         140.3765  145.7388  156.7378 N.3     1  UNL1       -0.2741
     27 C         139.5948  147.0169  156.6636 C.3     1  UNL1        0.0896
     28 C         141.0840  145.8753  154.2416 C.3     1  UNL1        0.0173
     29 C         141.3262  145.3755  155.6350 C.3     1  UNL1        0.0576
     30 C         142.5181  144.5123  155.9256 C.3     1  UNL1        0.0173
     31 C         141.5256  144.4561  161.6403 C.3     1  UNL1        0.2070
     32 O         143.0252  144.4262  161.6557 O.3     1  UNL1       -0.4754
     33 C         143.7458  143.2417  162.2284 C.ar    1  UNL1        0.1386
     34 C         143.7616  141.9407  161.4822 C.ar    1  UNL1        0.0369
     35 C         144.4822  140.7563  162.0549 C.ar    1  UNL1        0.0031
     36 C         145.1871  140.8731  163.3738 C.ar    1  UNL1        0.0002
     37 C         145.1714  142.1742  164.1200 C.ar    1  UNL1        0.0031
     38 C         144.4507  143.3585  163.5473 C.ar    1  UNL1        0.0369
@<TRIPOS>BOND
     1    28    29    1
     2    29    30    1
     3    29    26    1
     4    26    27    1
     5     1    26    1
     6     1     2    1
     7     2     3    1
     8     3     4    1
     9     4     7    1
    10     7     8   am
    11     8     9    2
    12     8    11    1
    13    11    12    1
    14    12    13   am
    15    13    14    2
    16    13    16    1
    17    16    17   ar
    18    17    18   ar
    19    18    19   ar
    20    19    20   ar
    21    20    22    1
    22    22    23    1
    23    22    24    1
    24    22    25    1
    25    20    21   ar
    26     4     5    1
    27     5    31    1
    28    31    32    1
    29    32    33    1
    30    33    34   ar
    31    34    35   ar
    32    35    36   ar
    33    36    37   ar
    34    37    38   ar
    35     5     6    1
    36     6     1    1
    37    21    16   ar
    38    38    33   ar
    39     7    10    1
    40    12    15    1
@<TRIPOS>MOLECULE
*****
 38 40 0 0 0
SMALL
GASTEIGER

@<TRIPOS>ATOM
      1 C         140.0098  144.9028  156.4687 C.3     1  UNL1        0.0577
      2 C         141.0588  145.9075  156.8432 C.3     1  UNL1        0.0177
      3 C         141.6075  145.9342  158.2389 C.3     1  UNL1        0.0211
      4 C         141.1073  144.9561  159.2603 C.3     1  UNL1        0.0752
      5 C         140.0583  143.9514  158.8859 C.3     1  UNL1        0.0630
      6 C         139.5096  143.9248  157.4901 C.3     1  UNL1        0.0213
      7 N         141.6560  144.9828  160.6561 N.am    1  UNL1       -0.3045
      8 C         142.7625  144.0477  161.0449 C.2     1  UNL1        0.2425
      9 O         143.3204  143.0859  160.0380 O.2     1  UNL1       -0.2733
     10 H         141.2899  145.6140  161.3169 H       1  UNL1        0.1494
     11 C         143.3112  144.0744  162.4407 C.3     1  UNL1        0.1759
     12 N         142.4731  143.5874  163.5855 N.am    1  UNL1       -0.2931
     13 C         142.2940  142.1153  163.8109 C.2     1  UNL1        0.2462
     14 O         142.9531  141.1302  162.8915 O.2     1  UNL1       -0.2701
     15 H         142.0406  144.2340  164.1889 H       1  UNL1        0.1502
     16 C         141.4560  141.6283  164.9556 C.ar    1  UNL1        0.0533
     17 C         141.4409  142.3864  166.2498 C.ar    1  UNL1        0.0045
     18 C         140.6027  141.8994  167.3946 C.ar    1  UNL1        0.0001
     19 C         139.7798  140.6542  167.2451 C.ar    1  UNL1        0.0039
     20 C         139.7949  139.8961  165.9509 C.ar    1  UNL1        0.0716
     21 C         140.6330  140.3831  164.8061 C.ar    1  UNL1        0.0084
     22 C         138.9720  138.6510  165.8013 C.3     1  UNL1        0.4186
     23 F         138.1490  137.4058  165.6518 F       1  UNL1       -0.1659
     24 F         137.7472  139.4106  166.2171 F       1  UNL1       -0.1659
     25 F         140.1968  137.8914  165.3856 F       1  UNL1       -0.1659
     26 N         139.4611  144.8761  155.0730 N.3     1  UNL1       -0.2741
     27 C         138.0159  145.1952  154.8290 C.3     1  UNL1        0.0896
     28 C         140.9938  145.6216  153.1121 C.3     1  UNL1        0.0173
     29 C         140.3576  144.5304  153.9211 C.3     1  UNL1        0.0576
     30 C         140.6179  143.0935  153.5782 C.3     1  UNL1        0.0173
     31 C         139.5580  142.9733  159.9072 C.3     1  UNL1        0.2070
     32 O         138.2899  143.2549  160.6572 O.3     1  UNL1       -0.4754
     33 C         138.3243  143.4425  162.1451 C.ar    1  UNL1        0.1386
     34 C         139.0141  144.6368  162.7347 C.ar    1  UNL1        0.0369
     35 C         139.0485  144.8243  164.2225 C.ar    1  UNL1        0.0031
     36 C         138.3931  143.8175  165.1207 C.ar    1  UNL1        0.0002
     37 C         137.7033  142.6232  164.5311 C.ar    1  UNL1        0.0031
     38 C         137.6689  142.4357  163.0433 C.ar    1  UNL1        0.0369
@<TRIPOS>BOND
     1    28    29    1
     2    29    30    1
     3    29    26    1
     4    26    27    1
     5     1    26    1
     6     1     2    1
     7     2     3    1
     8     3     4    1
     9     4     7    1
    10     7     8   am
    11     8     9    2
    12     8    11    1
    13    11    12    1
    14    12    13   am
    15    13    14    2
    16    13    16    1
    17    16    17   ar
    18    17    18   ar
    19    18    19   ar
    20    19    20   ar
    21    20    22    1
    22    22    23    1
    23    22    24    1
    24    22    25    1
    25    20    21   ar
    26     4     5    1
    27     5    31    1
    28    31    32    1
    29    32    33    1
    30    33    34   ar
    31    34    35   ar
    32    35    36   ar
    33    36    37   ar
    34    37    38   ar
    35     5     6    1
    36     6     1    1
    37    21    16   ar
    38    38    33   ar
    39     7    10    1
    40    12    15    1
