@<TRIPOS>MOLECULE
*****
 38 42 0 0 0
SMALL
GASTEIGER

@<TRIPOS>ATOM
      1 C         143.6260  141.0418  161.5409 C.ar    1  UNL1        0.0505
      2 C         144.9413  141.4040  162.1645 C.ar    1  UNL1        0.0170
      3 C         145.0165  142.5237  163.1597 C.ar    1  UNL1        0.0306
      4 C         143.7763  143.2813  163.5313 C.ar    1  UNL1        0.1380
      5 F         143.8515  144.4011  164.5266 F       1  UNL1       -0.2044
      6 C         142.4611  142.9192  162.9077 C.ar    1  UNL1        0.0282
      7 C         142.3860  141.7994  161.9125 C.ar    1  UNL1        0.0145
      8 C         141.2209  143.6768  163.2793 C.3     1  UNL1        0.1277
      9 C         141.6448  142.6624  164.2996 C.3     1  UNL1        0.1202
     10 N         140.6643  142.7081  165.4339 N.pl3   1  UNL1       -0.2758
     11 C         139.6344  143.7508  165.1145 C.3     1  UNL1        0.0968
     12 C         139.9784  144.3495  163.7828 C.3     1  UNL1        0.0573
     13 C         139.3208  145.4203  162.9638 C.3     1  UNL1        0.0688
     14 S         139.9056  145.8184  161.6412 S.3     1  UNL1       -0.0807
     15 C         141.1482  145.1458  161.1376 C.2     1  UNL1        0.1482
     16 N         141.7331  145.5440  159.8149 N.pl3   1  UNL1       -0.3380
     17 N         141.8058  144.0750  161.9566 N.2     1  UNL1       -0.2491
     18 H         141.3014  146.2468  159.2774 H       1  UNL1        0.1442
     19 H         142.5486  145.1025  159.4844 H       1  UNL1        0.1442
     20 C         140.7063  141.8599  166.6704 C.ar    1  UNL1        0.2204
     21 N         141.7538  142.1083  167.7149 N.ar    1  UNL1       -0.2097
     22 C         141.7958  141.2602  168.9515 C.ar    1  UNL1        0.1330
     23 C         140.7904  140.1637  169.1434 C.ar    1  UNL1        0.1784
     24 F         140.8324  139.3156  170.3799 F       1  UNL1       -0.2009
     25 C         139.7429  139.9154  168.0988 C.ar    1  UNL1        0.1330
     26 N         139.7009  140.7635  166.8623 N.ar    1  UNL1       -0.2097
     27 C         143.4709  140.2263  159.0791 C.2     1  UNL1        0.2688
     28 O         143.4659  141.6503  158.6077 O.2     1  UNL1       -0.2681
     29 N         143.5509  139.9221  160.5457 N.am    1  UNL1       -0.2791
     30 H         143.5542  138.9875  160.8551 H       1  UNL1        0.1552
     31 C         143.2455  136.8670  156.0933 C.ar    1  UNL1        0.2449
     32 C         143.9109  138.1586  155.7203 C.ar    1  UNL1        0.1565
     33 N         143.9861  139.2783  156.7156 N.ar    1  UNL1       -0.2328
     34 C         143.3958  139.1065  158.0837 C.ar    1  UNL1        0.1541
     35 C         142.7303  137.8150  158.4567 C.ar    1  UNL1        0.1258
     36 N         142.6551  136.6952  157.4615 N.ar    1  UNL1       -0.2071
     37 C         143.0157  134.3323  155.5712 C.3     1  UNL1        0.2543
     38 O         143.1704  135.7473  155.0981 O.3     1  UNL1       -0.4551
@<TRIPOS>BOND
     1    37    38    1
     2    38    31    1
     3    31    32   ar
     4    32    33   ar
     5    33    34   ar
     6    34    27    1
     7    27    28    2
     8    27    29   am
     9    29     1    1
    10     1     2   ar
    11     2     3   ar
    12     3     4   ar
    13     4     5    1
    14     4     6   ar
    15     8     6    1
    16     8     9    1
    17     9    10    1
    18    10    20    1
    19    20    21   ar
    20    21    22   ar
    21    22    23   ar
    22    23    24    1
    23    23    25   ar
    24    25    26   ar
    25    10    11    1
    26    12    11    1
    27    12    13    1
    28    13    14    1
    29    14    15    1
    30    15    16    1
    31    15    17    2
    32     6     7   ar
    33    34    35   ar
    34    35    36   ar
    35    36    31   ar
    36     7     1   ar
    37    12     8    1
    38    17     8    1
    39    26    20   ar
    40    29    30    1
    41    16    18    1
    42    16    19    1
@<TRIPOS>MOLECULE
*****
 38 42 0 0 0
SMALL
GASTEIGER

@<TRIPOS>ATOM
      1 C         139.5477  142.8340  161.3698 C.ar    1  UNL1        0.0505
      2 C         139.3737  144.2287  161.8936 C.ar    1  UNL1        0.0170
      3 C         140.2375  144.7215  163.0164 C.ar    1  UNL1        0.0306
      4 C         141.2755  143.8194  163.6155 C.ar    1  UNL1        0.1380
      5 F         142.1395  144.3121  164.7384 F       1  UNL1       -0.2044
      6 C         141.4496  142.4246  163.0917 C.ar    1  UNL1        0.0282
      7 C         140.5856  141.9320  161.9688 C.ar    1  UNL1        0.0145
      8 C         142.4875  141.5226  163.6908 C.3     1  UNL1        0.1277
      9 C         141.0873  141.2224  164.1373 C.3     1  UNL1        0.1202
     10 N         141.1423  140.0635  165.0880 N.pl3   1  UNL1       -0.2758
     11 C         142.5765  139.6474  165.2291 C.3     1  UNL1        0.0968
     12 C         143.4079  140.5491  164.3656 C.3     1  UNL1        0.0573
     13 C         144.8841  140.6096  164.1065 C.3     1  UNL1        0.0688
     14 S         145.4399  141.6435  163.1727 S.3     1  UNL1       -0.0807
     15 C         144.5196  142.6169  162.4980 C.2     1  UNL1        0.1482
     16 N         145.0755  143.6509  161.5641 N.pl3   1  UNL1       -0.3380
     17 N         143.0434  142.5565  162.7570 N.2     1  UNL1       -0.2491
     18 H         146.0444  143.6906  161.3941 H       1  UNL1        0.1442
     19 H         144.4714  144.2898  161.1212 H       1  UNL1        0.1442
     20 C         139.9691  139.4316  165.7767 C.ar    1  UNL1        0.2204
     21 N         139.4373  140.0242  167.0480 N.ar    1  UNL1       -0.2097
     22 C         138.2641  139.3923  167.7367 C.ar    1  UNL1        0.1330
     23 C         137.6227  138.1679  167.1541 C.ar    1  UNL1        0.1784
     24 F         136.4494  137.5361  167.8429 F       1  UNL1       -0.2009
     25 C         138.1544  137.5754  165.8829 C.ar    1  UNL1        0.1330
     26 N         139.3276  138.2073  165.1942 N.ar    1  UNL1       -0.2097
     27 C         138.9075  142.8451  158.8519 C.2     1  UNL1        0.2688
     28 O         139.9953  143.8415  158.5797 O.2     1  UNL1       -0.2681
     29 N         138.6838  142.3413  160.2469 N.am    1  UNL1       -0.2791
     30 H         137.9699  141.6874  160.4255 H       1  UNL1        0.1552
     31 C         136.3157  141.3670  155.4831 C.ar    1  UNL1        0.2449
     32 C         136.8060  142.7847  155.4858 C.ar    1  UNL1        0.1565
     33 N         137.6700  143.2774  156.6087 N.ar    1  UNL1       -0.2328
     34 C         138.0436  142.3524  157.7289 C.ar    1  UNL1        0.1541
     35 C         137.5533  140.9348  157.7262 C.ar    1  UNL1        0.1258
     36 N         136.6893  140.4421  156.6033 N.ar    1  UNL1       -0.2071
     37 C         133.9843  141.1848  154.3512 C.3     1  UNL1        0.2543
     38 O         135.4519  140.8745  154.3603 O.3     1  UNL1       -0.4551
@<TRIPOS>BOND
     1    37    38    1
     2    38    31    1
     3    31    32   ar
     4    32    33   ar
     5    33    34   ar
     6    34    27    1
     7    27    28    2
     8    27    29   am
     9    29     1    1
    10     1     2   ar
    11     2     3   ar
    12     3     4   ar
    13     4     5    1
    14     4     6   ar
    15     8     6    1
    16     8     9    1
    17     9    10    1
    18    10    20    1
    19    20    21   ar
    20    21    22   ar
    21    22    23   ar
    22    23    24    1
    23    23    25   ar
    24    25    26   ar
    25    10    11    1
    26    12    11    1
    27    12    13    1
    28    13    14    1
    29    14    15    1
    30    15    16    1
    31    15    17    2
    32     6     7   ar
    33    34    35   ar
    34    35    36   ar
    35    36    31   ar
    36     7     1   ar
    37    12     8    1
    38    17     8    1
    39    26    20   ar
    40    29    30    1
    41    16    18    1
    42    16    19    1
@<TRIPOS>MOLECULE
*****
 38 42 0 0 0
SMALL
GASTEIGER

@<TRIPOS>ATOM
      1 C         142.4827  140.2440  160.1315 C.ar    1  UNL1        0.0505
      2 C         143.7477  140.1447  160.9314 C.ar    1  UNL1        0.0170
      3 C         143.8707  140.8776  162.2343 C.ar    1  UNL1        0.0306
      4 C         142.7286  141.7099  162.7372 C.ar    1  UNL1        0.1380
      5 F         142.8516  142.4429  164.0402 F       1  UNL1       -0.2044
      6 C         141.4637  141.8093  161.9373 C.ar    1  UNL1        0.0282
      7 C         141.3408  141.0763  160.6344 C.ar    1  UNL1        0.0145
      8 C         140.3216  142.6416  162.4403 C.3     1  UNL1        0.1277
      9 C         140.3458  141.2449  162.9869 C.3     1  UNL1        0.1202
     10 N         139.1746  141.0884  163.9109 N.pl3   1  UNL1       -0.2758
     11 C         138.4266  142.3884  163.9353 C.3     1  UNL1        0.0968
     12 C         139.1354  143.3483  163.0264 C.3     1  UNL1        0.0573
     13 C         138.8541  144.7745  162.6568 C.3     1  UNL1        0.0688
     14 S         139.7589  145.4941  161.7011 S.3     1  UNL1       -0.0807
     15 C         140.9451  144.7874  161.1149 C.2     1  UNL1        0.1482
     16 N         141.8499  145.5070  160.1591 N.pl3   1  UNL1       -0.3380
     17 N         141.2264  143.3611  161.4845 N.2     1  UNL1       -0.2491
     18 H         141.6653  146.4431  159.9166 H       1  UNL1        0.1442
     19 H         142.6285  145.0432  159.7744 H       1  UNL1        0.1442
     20 C         138.8146  139.8495  164.6761 C.ar    1  UNL1        0.2204
     21 N         138.0982  139.9607  165.9892 N.ar    1  UNL1       -0.2097
     22 C         137.7382  138.7218  166.7544 C.ar    1  UNL1        0.1330
     23 C         138.0947  137.3717  166.2065 C.ar    1  UNL1        0.1784
     24 F         137.7347  136.1328  166.9717 F       1  UNL1       -0.2009
     25 C         138.8111  137.2606  164.8934 C.ar    1  UNL1        0.1330
     26 N         139.1711  138.4995  164.1282 N.ar    1  UNL1       -0.2097
     27 C         142.6068  138.0325  158.7736 C.2     1  UNL1        0.2688
     28 O         142.9767  137.2870  160.0216 O.2     1  UNL1       -0.2681
     29 N         142.3598  139.5110  158.8285 N.am    1  UNL1       -0.2791
     30 H         142.1170  140.0003  158.0095 H       1  UNL1        0.1552
     31 C         142.2380  135.8334  154.8649 C.ar    1  UNL1        0.2449
     32 C         143.5733  135.9462  155.5389 C.ar    1  UNL1        0.1565
     33 N         143.6963  136.6792  156.8418 N.ar    1  UNL1       -0.2328
     34 C         142.4839  137.2994  157.4707 C.ar    1  UNL1        0.1541
     35 C         141.1486  137.1866  156.7966 C.ar    1  UNL1        0.1258
     36 N         141.0257  136.4536  155.4938 N.ar    1  UNL1       -0.2071
     37 C         142.2065  133.6034  153.5321 C.3     1  UNL1        0.2543
     38 O         142.1151  135.1003  153.5620 O.3     1  UNL1       -0.4551
@<TRIPOS>BOND
     1    37    38    1
     2    38    31    1
     3    31    32   ar
     4    32    33   ar
     5    33    34   ar
     6    34    27    1
     7    27    28    2
     8    27    29   am
     9    29     1    1
    10     1     2   ar
    11     2     3   ar
    12     3     4   ar
    13     4     5    1
    14     4     6   ar
    15     8     6    1
    16     8     9    1
    17     9    10    1
    18    10    20    1
    19    20    21   ar
    20    21    22   ar
    21    22    23   ar
    22    23    24    1
    23    23    25   ar
    24    25    26   ar
    25    10    11    1
    26    12    11    1
    27    12    13    1
    28    13    14    1
    29    14    15    1
    30    15    16    1
    31    15    17    2
    32     6     7   ar
    33    34    35   ar
    34    35    36   ar
    35    36    31   ar
    36     7     1   ar
    37    12     8    1
    38    17     8    1
    39    26    20   ar
    40    29    30    1
    41    16    18    1
    42    16    19    1
@<TRIPOS>MOLECULE
*****
 38 42 0 0 0
SMALL
GASTEIGER

@<TRIPOS>ATOM
      1 C         140.7137  139.9613  159.8405 C.ar    1  UNL1        0.0505
      2 C         139.9101  141.2028  159.5897 C.ar    1  UNL1        0.0170
      3 C         140.0320  142.3753  160.5171 C.ar    1  UNL1        0.0306
      4 C         140.9576  142.3063  161.6956 C.ar    1  UNL1        0.1380
      5 F         141.0795  143.4789  162.6231 F       1  UNL1       -0.2044
      6 C         141.7611  141.0648  161.9464 C.ar    1  UNL1        0.0282
      7 C         141.6391  139.8923  161.0189 C.ar    1  UNL1        0.0145
      8 C         142.6867  140.9958  163.1248 C.3     1  UNL1        0.1277
      9 C         141.3172  140.4448  163.3916 C.3     1  UNL1        0.1202
     10 N         141.2777  139.9694  164.8137 N.pl3   1  UNL1       -0.2758
     11 C         142.6227  140.2266  165.4259 C.3     1  UNL1        0.0968
     12 C         143.4935  140.8609  164.3821 C.3     1  UNL1        0.0573
     13 C         144.9169  141.3331  164.4142 C.3     1  UNL1        0.0688
     14 S         145.5334  141.9401  163.1889 S.3     1  UNL1       -0.0807
     15 C         144.7265  142.0750  161.9316 C.2     1  UNL1        0.1482
     16 N         145.3431  142.6821  160.7063 N.pl3   1  UNL1       -0.3380
     17 N         143.3032  141.6028  161.8996 N.2     1  UNL1       -0.2491
     18 H         146.2773  142.9920  160.7273 H       1  UNL1        0.1442
     19 H         144.8136  142.7707  159.8811 H       1  UNL1        0.1442
     20 C         140.1000  139.3463  165.5026 C.ar    1  UNL1        0.2204
     21 N         139.5081  138.0739  164.9729 N.ar    1  UNL1       -0.2097
     22 C         138.3304  137.4507  165.6619 C.ar    1  UNL1        0.1330
     23 C         137.7445  138.1001  166.8805 C.ar    1  UNL1        0.1784
     24 F         136.5667  137.4769  167.5694 F       1  UNL1       -0.2009
     25 C         138.3363  139.3725  167.4101 C.ar    1  UNL1        0.1330
     26 N         139.5140  139.9956  166.7212 N.ar    1  UNL1       -0.2097
     27 C         141.7072  138.4638  157.9644 C.2     1  UNL1        0.2688
     28 O         142.9447  139.3112  157.9433 O.2     1  UNL1       -0.2681
     29 N         140.5917  138.7888  158.9130 N.am    1  UNL1       -0.2791
     30 H         139.7795  138.2326  158.9268 H       1  UNL1        0.1552
     31 C         141.3413  134.9463  155.1815 C.ar    1  UNL1        0.2449
     32 C         142.4878  135.0238  156.1457 C.ar    1  UNL1        0.1565
     33 N         142.6098  136.1962  157.0733 N.ar    1  UNL1       -0.2328
     34 C         141.5853  137.2912  157.0367 C.ar    1  UNL1        0.1541
     35 C         140.4388  137.2138  156.0725 C.ar    1  UNL1        0.1258
     36 N         140.3168  136.0413  155.1449 N.ar    1  UNL1       -0.2071
     37 C         141.3040  132.3774  154.7951 C.3     1  UNL1        0.2543
     38 O         141.2194  133.7739  154.2540 O.3     1  UNL1       -0.4551
@<TRIPOS>BOND
     1    37    38    1
     2    38    31    1
     3    31    32   ar
     4    32    33   ar
     5    33    34   ar
     6    34    27    1
     7    27    28    2
     8    27    29   am
     9    29     1    1
    10     1     2   ar
    11     2     3   ar
    12     3     4   ar
    13     4     5    1
    14     4     6   ar
    15     8     6    1
    16     8     9    1
    17     9    10    1
    18    10    20    1
    19    20    21   ar
    20    21    22   ar
    21    22    23   ar
    22    23    24    1
    23    23    25   ar
    24    25    26   ar
    25    10    11    1
    26    12    11    1
    27    12    13    1
    28    13    14    1
    29    14    15    1
    30    15    16    1
    31    15    17    2
    32     6     7   ar
    33    34    35   ar
    34    35    36   ar
    35    36    31   ar
    36     7     1   ar
    37    12     8    1
    38    17     8    1
    39    26    20   ar
    40    29    30    1
    41    16    18    1
    42    16    19    1
@<TRIPOS>MOLECULE
*****
 38 42 0 0 0
SMALL
GASTEIGER

@<TRIPOS>ATOM
      1 C         139.8313  139.4478  161.3121 C.ar    1  UNL1        0.0505
      2 C         138.4354  139.1511  161.7740 C.ar    1  UNL1        0.0170
      3 C         137.7725  140.0445  162.7801 C.ar    1  UNL1        0.0306
      4 C         138.5056  141.2347  163.3243 C.ar    1  UNL1        0.1380
      5 F         137.8427  142.1282  164.3305 F       1  UNL1       -0.2044
      6 C         139.9016  141.5313  162.8625 C.ar    1  UNL1        0.0282
      7 C         140.5644  140.6378  161.8563 C.ar    1  UNL1        0.0145
      8 C         140.6347  142.7214  163.4067 C.3     1  UNL1        0.1277
      9 C         140.6906  141.5126  164.2931 C.3     1  UNL1        0.1202
     10 N         141.4948  141.8662  165.5090 N.pl3   1  UNL1       -0.2758
     11 C         141.9358  143.2935  165.3740 C.3     1  UNL1        0.0968
     12 C         141.4043  143.8221  164.0748 C.3     1  UNL1        0.0573
     13 C         141.5216  145.1634  163.4137 C.3     1  UNL1        0.0688
     14 S         140.8693  145.4040  162.0846 S.3     1  UNL1       -0.0807
     15 C         140.0997  144.3034  161.4165 C.2     1  UNL1        0.1482
     16 N         139.4474  144.5441  160.0874 N.pl3   1  UNL1       -0.3380
     17 N         139.9824  142.9621  162.0776 N.2     1  UNL1       -0.2491
     18 H         139.5244  145.4245  159.6535 H       1  UNL1        0.1442
     19 H         138.9423  143.8217  159.6489 H       1  UNL1        0.1442
     20 C         141.8037  140.9528  166.6581 C.ar    1  UNL1        0.2204
     21 N         141.1793  141.1978  167.9997 N.ar    1  UNL1       -0.2097
     22 C         141.4882  140.2844  169.1488 C.ar    1  UNL1        0.1330
     23 C         142.4214  139.1261  168.9562 C.ar    1  UNL1        0.1784
     24 F         142.7303  138.2127  170.1053 F       1  UNL1       -0.2009
     25 C         143.0458  138.8810  167.6145 C.ar    1  UNL1        0.1330
     26 N         142.7369  139.7944  166.4655 N.ar    1  UNL1       -0.2097
     27 C         140.4857  138.9254  158.8527 C.2     1  UNL1        0.2688
     28 O         139.8143  140.1901  158.4055 O.2     1  UNL1       -0.2681
     29 N         140.4942  138.5543  160.3060 N.am    1  UNL1       -0.2791
     30 H         140.9348  137.7242  160.5995 H       1  UNL1        0.1552
     31 C         142.4742  136.2451  155.8341 C.ar    1  UNL1        0.2449
     32 C         140.9819  136.3967  155.8344 C.ar    1  UNL1        0.1565
     33 N         140.3190  137.2902  156.8406 N.ar    1  UNL1       -0.2328
     34 C         141.1485  138.0319  157.8464 C.ar    1  UNL1        0.1541
     35 C         142.6408  137.8803  157.8461 C.ar    1  UNL1        0.1258
     36 N         143.3037  136.9868  156.8400 N.ar    1  UNL1       -0.2071
     37 C         142.3443  134.7934  153.6833 C.3     1  UNL1        0.2543
     38 O         143.1370  135.3516  154.8280 O.3     1  UNL1       -0.4551
@<TRIPOS>BOND
     1    37    38    1
     2    38    31    1
     3    31    32   ar
     4    32    33   ar
     5    33    34   ar
     6    34    27    1
     7    27    28    2
     8    27    29   am
     9    29     1    1
    10     1     2   ar
    11     2     3   ar
    12     3     4   ar
    13     4     5    1
    14     4     6   ar
    15     8     6    1
    16     8     9    1
    17     9    10    1
    18    10    20    1
    19    20    21   ar
    20    21    22   ar
    21    22    23   ar
    22    23    24    1
    23    23    25   ar
    24    25    26   ar
    25    10    11    1
    26    12    11    1
    27    12    13    1
    28    13    14    1
    29    14    15    1
    30    15    16    1
    31    15    17    2
    32     6     7   ar
    33    34    35   ar
    34    35    36   ar
    35    36    31   ar
    36     7     1   ar
    37    12     8    1
    38    17     8    1
    39    26    20   ar
    40    29    30    1
    41    16    18    1
    42    16    19    1
@<TRIPOS>MOLECULE
*****
 38 42 0 0 0
SMALL
GASTEIGER

@<TRIPOS>ATOM
      1 C         140.6445  139.1401  162.3034 C.ar    1  UNL1        0.0505
      2 C         139.8629  138.0118  162.9083 C.ar    1  UNL1        0.0170
      3 C         138.9797  138.2625  164.0945 C.ar    1  UNL1        0.0306
      4 C         138.8781  139.6415  164.6757 C.ar    1  UNL1        0.1380
      5 F         137.9948  139.8923  165.8619 F       1  UNL1       -0.2044
      6 C         139.6597  140.7699  164.0708 C.ar    1  UNL1        0.0282
      7 C         140.5429  140.5191  162.8846 C.ar    1  UNL1        0.0145
      8 C         139.5581  142.1489  164.6520 C.3     1  UNL1        0.1277
      9 C         140.2721  141.1668  165.5327 C.3     1  UNL1        0.1202
     10 N         140.6893  141.8831  166.7828 N.pl3   1  UNL1       -0.2758
     11 C         140.2331  143.3079  166.6747 C.3     1  UNL1        0.0968
     12 C         139.5340  143.4723  165.3578 C.3     1  UNL1        0.0573
     13 C         138.8786  144.6559  164.7103 C.3     1  UNL1        0.0688
     14 S         138.2472  144.5162  163.3568 S.3     1  UNL1       -0.0807
     15 C         138.2713  143.1929  162.6510 C.2     1  UNL1        0.1482
     16 N         137.6400  143.0532  161.2974 N.pl3   1  UNL1       -0.3380
     17 N         138.9267  142.0093  163.2985 N.2     1  UNL1       -0.2491
     18 H         137.2098  143.8301  160.8724 H       1  UNL1        0.1442
     19 H         137.6558  142.1847  160.8341 H       1  UNL1        0.1442
     20 C         141.4322  141.2803  167.9381 C.ar    1  UNL1        0.2204
     21 N         142.5344  142.0493  168.6043 N.ar    1  UNL1       -0.2097
     22 C         143.2773  141.4466  169.7596 C.ar    1  UNL1        0.1330
     23 C         142.9180  140.0749  170.2488 C.ar    1  UNL1        0.1784
     24 F         143.6610  139.4722  171.4041 F       1  UNL1       -0.2009
     25 C         141.8159  139.3059  169.5826 C.ar    1  UNL1        0.1330
     26 N         141.0729  139.9086  168.4273 N.ar    1  UNL1       -0.2097
     27 C         141.0649  139.2732  159.7430 C.2     1  UNL1        0.2688
     28 O         139.7188  139.9080  159.5551 O.2     1  UNL1       -0.2681
     29 N         141.5277  138.8893  161.1172 N.am    1  UNL1       -0.2791
     30 H         142.4112  138.4727  161.2406 H       1  UNL1        0.1552
     31 C         143.7145  138.5211  156.1843 C.ar    1  UNL1        0.2449
     32 C         142.9451  137.3896  156.7991 C.ar    1  UNL1        0.1565
     33 N         142.0619  137.6403  157.9853 N.ar    1  UNL1       -0.2328
     34 C         141.9481  139.0225  158.5568 C.ar    1  UNL1        0.1541
     35 C         142.7175  140.1539  157.9421 C.ar    1  UNL1        0.1258
     36 N         143.6007  139.9032  156.7558 N.ar    1  UNL1       -0.2071
     37 C         145.0986  139.4227  154.1790 C.3     1  UNL1        0.2543
     38 O         144.5976  138.2703  154.9982 O.3     1  UNL1       -0.4551
@<TRIPOS>BOND
     1    37    38    1
     2    38    31    1
     3    31    32   ar
     4    32    33   ar
     5    33    34   ar
     6    34    27    1
     7    27    28    2
     8    27    29   am
     9    29     1    1
    10     1     2   ar
    11     2     3   ar
    12     3     4   ar
    13     4     5    1
    14     4     6   ar
    15     8     6    1
    16     8     9    1
    17     9    10    1
    18    10    20    1
    19    20    21   ar
    20    21    22   ar
    21    22    23   ar
    22    23    24    1
    23    23    25   ar
    24    25    26   ar
    25    10    11    1
    26    12    11    1
    27    12    13    1
    28    13    14    1
    29    14    15    1
    30    15    16    1
    31    15    17    2
    32     6     7   ar
    33    34    35   ar
    34    35    36   ar
    35    36    31   ar
    36     7     1   ar
    37    12     8    1
    38    17     8    1
    39    26    20   ar
    40    29    30    1
    41    16    18    1
    42    16    19    1
@<TRIPOS>MOLECULE
*****
 38 42 0 0 0
SMALL
GASTEIGER

@<TRIPOS>ATOM
      1 C         141.5033  138.8648  158.3965 C.ar    1  UNL1        0.0505
      2 C         142.8457  139.5075  158.2096 C.ar    1  UNL1        0.0170
      3 C         143.6295  139.2563  156.9557 C.ar    1  UNL1        0.0306
      4 C         143.0709  138.3623  155.8886 C.ar    1  UNL1        0.1380
      5 F         143.8548  138.1110  154.6345 F       1  UNL1       -0.2044
      6 C         141.7285  137.7196  156.0754 C.ar    1  UNL1        0.0282
      7 C         140.9447  137.9709  157.3294 C.ar    1  UNL1        0.0145
      8 C         141.1699  136.8256  155.0082 C.3     1  UNL1        0.1277
      9 C         142.0381  136.1168  156.0052 C.3     1  UNL1        0.1202
     10 N         142.0925  134.6669  155.6244 N.pl3   1  UNL1       -0.2758
     11 C         141.2579  134.4797  154.3922 C.3     1  UNL1        0.0968
     12 C         140.6877  135.8138  154.0114 C.3     1  UNL1        0.0573
     13 C         139.7918  136.2380  152.8856 C.3     1  UNL1        0.0688
     14 S         139.3780  137.6740  152.7568 S.3     1  UNL1       -0.0807
     15 C         139.8602  138.6858  153.7537 C.2     1  UNL1        0.1482
     16 N         139.4464  140.1219  153.6249 N.pl3   1  UNL1       -0.3380
     17 N         140.7561  138.2616  154.8794 N.2     1  UNL1       -0.2491
     18 H         138.8583  140.4003  152.8860 H       1  UNL1        0.1442
     19 H         139.7628  140.7860  154.2791 H       1  UNL1        0.1442
     20 C         142.8487  133.5929  156.3487 C.ar    1  UNL1        0.2204
     21 N         142.4248  132.1599  156.2196 N.ar    1  UNL1       -0.2097
     22 C         143.1810  131.0859  156.9440 C.ar    1  UNL1        0.1330
     23 C         144.3611  131.4448  157.7974 C.ar    1  UNL1        0.1784
     24 F         145.1173  130.3708  158.5217 F       1  UNL1       -0.2009
     25 C         144.7850  132.8779  157.9265 C.ar    1  UNL1        0.1330
     26 N         144.0288  133.9519  157.2022 N.ar    1  UNL1       -0.2097
     27 C         141.1443  138.4797  160.9406 C.2     1  UNL1        0.2688
     28 O         142.3530  137.5921  160.9768 O.2     1  UNL1       -0.2681
     29 N         140.7195  139.1161  159.6505 N.am    1  UNL1       -0.2791
     30 H         139.9262  139.6987  159.6267 H       1  UNL1        0.1552
     31 C         138.7930  139.2334  164.7028 C.ar    1  UNL1        0.2449
     32 C         139.5342  140.3586  164.0435 C.ar    1  UNL1        0.1565
     33 N         140.3180  140.1074  162.7895 N.ar    1  UNL1       -0.2328
     34 C         140.3605  138.7310  162.1947 C.ar    1  UNL1        0.1541
     35 C         139.6193  137.6058  162.8540 C.ar    1  UNL1        0.1258
     36 N         138.8355  137.8571  164.1080 N.ar    1  UNL1       -0.2071
     37 C         137.6923  138.3486  166.8835 C.3     1  UNL1        0.2543
     38 O         138.0093  139.4847  165.9567 O.3     1  UNL1       -0.4551
@<TRIPOS>BOND
     1    37    38    1
     2    38    31    1
     3    31    32   ar
     4    32    33   ar
     5    33    34   ar
     6    34    27    1
     7    27    28    2
     8    27    29   am
     9    29     1    1
    10     1     2   ar
    11     2     3   ar
    12     3     4   ar
    13     4     5    1
    14     4     6   ar
    15     8     6    1
    16     8     9    1
    17     9    10    1
    18    10    20    1
    19    20    21   ar
    20    21    22   ar
    21    22    23   ar
    22    23    24    1
    23    23    25   ar
    24    25    26   ar
    25    10    11    1
    26    12    11    1
    27    12    13    1
    28    13    14    1
    29    14    15    1
    30    15    16    1
    31    15    17    2
    32     6     7   ar
    33    34    35   ar
    34    35    36   ar
    35    36    31   ar
    36     7     1   ar
    37    12     8    1
    38    17     8    1
    39    26    20   ar
    40    29    30    1
    41    16    18    1
    42    16    19    1
@<TRIPOS>MOLECULE
*****
 38 42 0 0 0
SMALL
GASTEIGER

@<TRIPOS>ATOM
      1 C         140.1427  139.5178  158.7673 C.ar    1  UNL1        0.0505
      2 C         139.0666  139.2820  159.7854 C.ar    1  UNL1        0.0170
      3 C         138.2787  140.4385  160.3254 C.ar    1  UNL1        0.0306
      4 C         138.5668  141.8308  159.8473 C.ar    1  UNL1        0.1380
      5 F         137.7789  142.9874  160.3874 F       1  UNL1       -0.2044
      6 C         139.6429  142.0665  158.8293 C.ar    1  UNL1        0.0282
      7 C         140.4308  140.9100  158.2893 C.ar    1  UNL1        0.0145
      8 C         139.9311  143.4588  158.3513 C.3     1  UNL1        0.1277
      9 C         140.5694  143.1208  159.6659 C.3     1  UNL1        0.1202
     10 N         141.3370  144.3226  160.1312 N.pl3   1  UNL1       -0.2758
     11 C         141.1730  145.4034  159.1041 C.3     1  UNL1        0.0968
     12 C         140.3042  144.8696  158.0040 C.3     1  UNL1        0.0573
     13 C         139.8045  145.4858  156.7310 C.3     1  UNL1        0.0688
     14 S         138.9318  144.6913  155.8053 S.3     1  UNL1       -0.0807
     15 C         138.5588  143.2805  156.1525 C.2     1  UNL1        0.1482
     16 N         137.6860  142.4860  155.2267 N.pl3   1  UNL1       -0.3380
     17 N         139.0584  142.6643  157.4255 N.2     1  UNL1       -0.2491
     18 H         137.3581  142.8904  154.3912 H       1  UNL1        0.1442
     19 H         137.4411  141.5600  155.4546 H       1  UNL1        0.1442
     20 C         142.1293  144.4256  161.4007 C.ar    1  UNL1        0.2204
     21 N         143.5252  143.8798  161.4599 N.ar    1  UNL1       -0.2097
     22 C         144.3176  143.9827  162.7293 C.ar    1  UNL1        0.1330
     23 C         143.7140  144.6315  163.9396 C.ar    1  UNL1        0.1784
     24 F         144.5064  144.7344  165.2091 F       1  UNL1       -0.2009
     25 C         142.3181  145.1772  163.8804 C.ar    1  UNL1        0.1330
     26 N         141.5258  145.0743  162.6110 N.ar    1  UNL1       -0.2097
     27 C         140.4504  137.6305  157.0086 C.2     1  UNL1        0.2688
     28 O         139.1823  138.0563  156.3298 O.2     1  UNL1       -0.2681
     29 N         140.9306  138.3612  158.2273 N.am    1  UNL1       -0.2791
     30 H         141.7628  138.0818  158.6728 H       1  UNL1        0.1552
     31 C         142.8139  134.1608  155.3884 C.ar    1  UNL1        0.2449
     32 C         143.3420  134.9515  156.5485 C.ar    1  UNL1        0.1565
     33 N         142.5542  136.1080  157.0886 N.ar    1  UNL1       -0.2328
     34 C         141.2383  136.4739  156.4685 C.ar    1  UNL1        0.1541
     35 C         140.7102  135.6832  155.3083 C.ar    1  UNL1        0.1258
     36 N         141.4981  134.5266  154.7683 N.ar    1  UNL1       -0.2071
     37 C         144.3233  132.0842  155.7881 C.3     1  UNL1        0.2543
     38 O         143.6018  133.0043  154.8484 O.3     1  UNL1       -0.4551
@<TRIPOS>BOND
     1    37    38    1
     2    38    31    1
     3    31    32   ar
     4    32    33   ar
     5    33    34   ar
     6    34    27    1
     7    27    28    2
     8    27    29   am
     9    29     1    1
    10     1     2   ar
    11     2     3   ar
    12     3     4   ar
    13     4     5    1
    14     4     6   ar
    15     8     6    1
    16     8     9    1
    17     9    10    1
    18    10    20    1
    19    20    21   ar
    20    21    22   ar
    21    22    23   ar
    22    23    24    1
    23    23    25   ar
    24    25    26   ar
    25    10    11    1
    26    12    11    1
    27    12    13    1
    28    13    14    1
    29    14    15    1
    30    15    16    1
    31    15    17    2
    32     6     7   ar
    33    34    35   ar
    34    35    36   ar
    35    36    31   ar
    36     7     1   ar
    37    12     8    1
    38    17     8    1
    39    26    20   ar
    40    29    30    1
    41    16    18    1
    42    16    19    1
@<TRIPOS>MOLECULE
*****
 38 42 0 0 0
SMALL
GASTEIGER

@<TRIPOS>ATOM
      1 C         142.8226  141.0649  158.8770 C.ar    1  UNL1        0.0505
      2 C         141.6942  140.1434  158.5199 C.ar    1  UNL1        0.0170
      3 C         140.4109  140.1937  159.2947 C.ar    1  UNL1        0.0306
      4 C         140.2560  141.1654  160.4269 C.ar    1  UNL1        0.1380
      5 F         138.9726  141.2157  161.2018 F       1  UNL1       -0.2044
      6 C         141.3844  142.0869  160.7840 C.ar    1  UNL1        0.0282
      7 C         142.6677  142.0367  160.0091 C.ar    1  UNL1        0.0145
      8 C         141.2295  143.0587  161.9161 C.3     1  UNL1        0.1277
      9 C         141.7844  141.7270  162.3268 C.3     1  UNL1        0.1202
     10 N         142.0296  141.7633  163.8062 N.pl3   1  UNL1       -0.2758
     11 C         141.6262  143.1174  164.3098 C.3     1  UNL1        0.0968
     12 C         141.1317  143.9180  163.1417 C.3     1  UNL1        0.0573
     13 C         140.6050  145.3185  163.0357 C.3     1  UNL1        0.0688
     14 S         140.1761  145.8596  161.7042 S.3     1  UNL1       -0.0807
     15 C         140.2739  145.0003  160.4786 C.2     1  UNL1        0.1482
     16 N         139.8449  145.5416  159.1470 N.pl3   1  UNL1       -0.3380
     17 N         140.8006  143.5999  160.5846 N.2     1  UNL1       -0.2491
     18 H         139.4992  146.4607  159.0774 H       1  UNL1        0.1442
     19 H         139.9091  144.9776  158.3425 H       1  UNL1        0.1442
     20 C         142.5814  140.6422  164.6362 C.ar    1  UNL1        0.2204
     21 N         141.8786  140.2238  165.8936 N.ar    1  UNL1       -0.2097
     22 C         142.4304  139.1028  166.7236 C.ar    1  UNL1        0.1330
     23 C         143.6848  138.4002  166.2962 C.ar    1  UNL1        0.1784
     24 F         144.2366  137.2792  167.1262 F       1  UNL1       -0.2009
     25 C         144.3875  138.8186  165.0388 C.ar    1  UNL1        0.1330
     26 N         143.8358  139.9397  164.2088 N.ar    1  UNL1       -0.2097
     27 C         144.3402  141.9774  156.9759 C.2     1  UNL1        0.2688
     28 O         143.2911  142.9904  156.6247 O.2     1  UNL1       -0.2681
     29 N         144.1059  141.0147  158.1020 N.am    1  UNL1       -0.2791
     30 H         144.7944  140.3498  158.3325 H       1  UNL1        0.1552
     31 C         148.1900  141.8266  154.6507 C.ar    1  UNL1        0.2449
     32 C         148.1927  142.2925  156.0766 C.ar    1  UNL1        0.1565
     33 N         146.9095  142.3428  156.8516 N.ar    1  UNL1       -0.2328
     34 C         145.6235  141.9271  156.2008 C.ar    1  UNL1        0.1541
     35 C         145.6208  141.4613  154.7750 C.ar    1  UNL1        0.1258
     36 N         146.9041  141.4110  154.0000 N.ar    1  UNL1       -0.2071
     37 C         150.7339  141.3097  154.5416 C.3     1  UNL1        0.2543
     38 O         149.4733  141.7764  153.8758 O.3     1  UNL1       -0.4551
@<TRIPOS>BOND
     1    37    38    1
     2    38    31    1
     3    31    32   ar
     4    32    33   ar
     5    33    34   ar
     6    34    27    1
     7    27    28    2
     8    27    29   am
     9    29     1    1
    10     1     2   ar
    11     2     3   ar
    12     3     4   ar
    13     4     5    1
    14     4     6   ar
    15     8     6    1
    16     8     9    1
    17     9    10    1
    18    10    20    1
    19    20    21   ar
    20    21    22   ar
    21    22    23   ar
    22    23    24    1
    23    23    25   ar
    24    25    26   ar
    25    10    11    1
    26    12    11    1
    27    12    13    1
    28    13    14    1
    29    14    15    1
    30    15    16    1
    31    15    17    2
    32     6     7   ar
    33    34    35   ar
    34    35    36   ar
    35    36    31   ar
    36     7     1   ar
    37    12     8    1
    38    17     8    1
    39    26    20   ar
    40    29    30    1
    41    16    18    1
    42    16    19    1
