@<TRIPOS>MOLECULE
*****
 34 38 0 0 0
SMALL
GASTEIGER

@<TRIPOS>ATOM
      1 N         142.4413  141.3360  167.1254 N.ar    1  UNL1       -0.2815
      2 C         142.5943  141.9938  168.4647 C.ar    1  UNL1        0.3316
      3 O         143.7313  142.8754  168.8893 O.2     1  UNL1       -0.2463
      4 N         141.4109  141.6152  169.3050 N.ar    1  UNL1       -0.2765
      5 C         141.1565  142.0518  170.7173 C.3     1  UNL1        0.1352
      6 C         140.5264  140.7235  168.4849 C.ar    1  UNL1        0.0989
      7 C         139.2234  140.0463  168.7908 C.ar    1  UNL1        0.1175
      8 N         138.5572  139.1966  167.7496 N.ar    1  UNL1       -0.2422
      9 C         139.1941  139.0240  166.4025 C.ar    1  UNL1        0.0850
     10 C         138.5279  138.1742  165.3613 C.ar    1  UNL1        0.0488
     11 C         139.1648  138.0016  164.0142 C.ar    1  UNL1        0.1416
     12 F         138.4986  137.1519  162.9730 F       1  UNL1       -0.2041
     13 C         140.4678  138.6788  163.7084 C.ar    1  UNL1        0.0291
     14 C         141.1340  139.5286  164.7496 C.ar    1  UNL1        0.0053
     15 C         140.4971  139.7012  166.0967 C.ar    1  UNL1        0.0352
     16 C         141.1632  140.5509  167.1379 C.ar    1  UNL1        0.0826
     17 C         141.1047  138.5063  162.3613 C.ar    1  UNL1        0.0216
     18 C         142.5030  137.9738  162.2555 C.ar    1  UNL1        0.0064
     19 C         143.1399  137.8012  160.9084 C.ar    1  UNL1        0.0577
     20 C         142.3784  138.1611  159.6671 C.ar    1  UNL1        0.2249
     21 N         140.9801  138.6936  159.7730 N.ar    1  UNL1       -0.2101
     22 C         140.3433  138.8662  161.1201 C.ar    1  UNL1        0.1021
     23 O         143.0153  137.9885  158.3201 O.3     1  UNL1       -0.4587
     24 C         142.3043  137.2176  157.2475 C.3     1  UNL1        0.2244
     25 C         143.0599  136.2325  156.4058 C.3     1  UNL1        0.1202
     26 N         142.8594  134.7604  156.6121 N.3     1  UNL1       -0.2672
     27 C         141.9546  133.9910  155.6959 C.3     1  UNL1        0.0898
     28 C         143.5637  134.0575  157.7347 C.3     1  UNL1        0.0898
     29 C         144.7517  141.5973  164.3491 C.3     1  UNL1        0.1191
     30 C         144.0321  142.5786  165.2261 C.3     1  UNL1        0.0524
     31 C         143.3983  141.4443  165.9754 C.3     1  UNL1        0.0947
     32 C         144.1179  140.4629  165.0984 C.3     1  UNL1        0.0524
     33 C         145.2083  142.1018  161.8417 C.3     1  UNL1        0.1740
     34 O         145.7087  141.7056  163.1991 O.3     1  UNL1       -0.3534
@<TRIPOS>BOND
     1    33    34    1
     2    29    34    1
     3    29    30    1
     4    30    31    1
     5    31     1    1
     6     1     2   ar
     7     2     3    2
     8     2     4   ar
     9     4     5    1
    10     4     6   ar
    11     6     7   ar
    12     7     8   ar
    13     8     9   ar
    14     9    10   ar
    15    10    11   ar
    16    11    12    1
    17    11    13   ar
    18    13    17    1
    19    17    18   ar
    20    18    19   ar
    21    19    20   ar
    22    20    23    1
    23    23    24    1
    24    24    25    1
    25    25    26    1
    26    26    27    1
    27    26    28    1
    28    20    21   ar
    29    21    22   ar
    30    13    14   ar
    31    14    15   ar
    32    15    16   ar
    33    31    32    1
    34    32    29    1
    35    16     1   ar
    36    16     6   ar
    37    15     9   ar
    38    22    17   ar
@<TRIPOS>MOLECULE
*****
 34 38 0 0 0
SMALL
GASTEIGER

@<TRIPOS>ATOM
      1 N         139.7705  139.7649  166.3330 N.ar    1  UNL1       -0.2815
      2 C         139.0084  139.6180  167.6166 C.ar    1  UNL1        0.3316
      3 O         137.7443  138.8331  167.8066 O.2     1  UNL1       -0.2463
      4 N         139.7322  140.3939  168.6768 N.ar    1  UNL1       -0.2765
      5 C         139.3191  140.5211  170.1132 C.3     1  UNL1        0.1352
      6 C         140.9417  141.0202  168.0485 C.ar    1  UNL1        0.0989
      7 C         142.0246  141.8943  168.6082 C.ar    1  UNL1        0.1175
      8 N         143.1311  142.3797  167.7194 N.ar    1  UNL1       -0.2422
      9 C         143.1548  141.9909  166.2709 C.ar    1  UNL1        0.0850
     10 C         144.2613  142.4763  165.3820 C.ar    1  UNL1        0.0488
     11 C         144.2850  142.0875  163.9335 C.ar    1  UNL1        0.1416
     12 F         145.3915  142.5729  163.0447 F       1  UNL1       -0.2041
     13 C         143.2021  141.2134  163.3738 C.ar    1  UNL1        0.0291
     14 C         142.0956  140.7280  164.2626 C.ar    1  UNL1        0.0053
     15 C         142.0719  141.1168  165.7111 C.ar    1  UNL1        0.0352
     16 C         140.9654  140.6315  166.5999 C.ar    1  UNL1        0.0826
     17 C         143.2257  140.8246  161.9252 C.ar    1  UNL1        0.0216
     18 C         142.3583  141.5502  160.9397 C.ar    1  UNL1        0.0064
     19 C         142.3820  141.1614  159.4911 C.ar    1  UNL1        0.0577
     20 C         143.2730  140.0471  159.0281 C.ar    1  UNL1        0.2249
     21 N         144.1404  139.3216  160.0136 N.ar    1  UNL1       -0.2101
     22 C         144.1168  139.7104  161.4622 C.ar    1  UNL1        0.1021
     23 O         143.2967  139.6583  157.5795 O.3     1  UNL1       -0.4587
     24 C         142.3893  138.5737  157.0792 C.3     1  UNL1        0.2244
     25 C         142.5666  137.1650  157.5631 C.3     1  UNL1        0.1202
     26 N         143.2861  136.1635  156.7091 N.3     1  UNL1       -0.2672
     27 C         143.1938  134.7010  157.0291 C.3     1  UNL1        0.0898
     28 C         144.0979  136.6246  155.5350 C.3     1  UNL1        0.0898
     29 C         138.8818  138.2868  163.1488 C.3     1  UNL1        0.1191
     30 C         139.7342  137.8701  164.3106 C.3     1  UNL1        0.0524
     31 C         139.4024  139.1526  165.0141 C.3     1  UNL1        0.0947
     32 C         138.5500  139.5694  163.8522 C.3     1  UNL1        0.0524
     33 C         139.2068  138.1203  160.5765 C.3     1  UNL1        0.1740
     34 O         138.5137  137.6745  161.8298 O.3     1  UNL1       -0.3534
@<TRIPOS>BOND
     1    33    34    1
     2    29    34    1
     3    29    30    1
     4    30    31    1
     5    31     1    1
     6     1     2   ar
     7     2     3    2
     8     2     4   ar
     9     4     5    1
    10     4     6   ar
    11     6     7   ar
    12     7     8   ar
    13     8     9   ar
    14     9    10   ar
    15    10    11   ar
    16    11    12    1
    17    11    13   ar
    18    13    17    1
    19    17    18   ar
    20    18    19   ar
    21    19    20   ar
    22    20    23    1
    23    23    24    1
    24    24    25    1
    25    25    26    1
    26    26    27    1
    27    26    28    1
    28    20    21   ar
    29    21    22   ar
    30    13    14   ar
    31    14    15   ar
    32    15    16   ar
    33    31    32    1
    34    32    29    1
    35    16     1   ar
    36    16     6   ar
    37    15     9   ar
    38    22    17   ar
@<TRIPOS>MOLECULE
*****
 34 38 0 0 0
SMALL
GASTEIGER

@<TRIPOS>ATOM
      1 N         142.8660  142.6876  159.9631 N.ar    1  UNL1       -0.2815
      2 C         143.2445  142.8838  158.5250 C.ar    1  UNL1        0.3316
      3 O         144.2739  142.0971  157.7690 O.2     1  UNL1       -0.2463
      4 N         142.4129  144.0048  157.9756 N.ar    1  UNL1       -0.2765
      5 C         142.4647  144.5360  156.5737 C.3     1  UNL1        0.1352
      6 C         141.5205  144.5014  159.0742 C.ar    1  UNL1        0.0989
      7 C         140.4890  145.5897  159.1147 C.ar    1  UNL1        0.1175
      8 N         139.7376  145.8639  160.3836 N.ar    1  UNL1       -0.2422
      9 C         140.0176  145.0498  161.6119 C.ar    1  UNL1        0.0850
     10 C         139.2661  145.3241  162.8809 C.ar    1  UNL1        0.0488
     11 C         139.5461  144.5100  164.1092 C.ar    1  UNL1        0.1416
     12 F         138.7947  144.7842  165.3781 F       1  UNL1       -0.2041
     13 C         140.5776  143.4217  164.0687 C.ar    1  UNL1        0.0291
     14 C         141.3291  143.1475  162.7998 C.ar    1  UNL1        0.0053
     15 C         141.0490  143.9615  161.5714 C.ar    1  UNL1        0.0352
     16 C         141.8005  143.6873  160.3025 C.ar    1  UNL1        0.0826
     17 C         140.8576  142.6076  165.2970 C.ar    1  UNL1        0.0216
     18 C         139.7390  141.8892  165.9918 C.ar    1  UNL1        0.0064
     19 C         140.0190  141.0751  167.2201 C.ar    1  UNL1        0.0577
     20 C         141.4177  140.9794  167.7537 C.ar    1  UNL1        0.2249
     21 N         142.5362  141.6978  167.0590 N.ar    1  UNL1       -0.2101
     22 C         142.2562  142.5118  165.8306 C.ar    1  UNL1        0.1021
     23 O         141.6977  140.1653  168.9821 O.3     1  UNL1       -0.4587
     24 C         140.8318  140.3192  170.1973 C.3     1  UNL1        0.2244
     25 C         141.0091  141.5046  171.0993 C.3     1  UNL1        0.1202
     26 N         141.4493  142.8208  170.5303 N.3     1  UNL1       -0.2672
     27 C         140.4366  143.7639  169.9515 C.3     1  UNL1        0.0898
     28 C         142.9021  143.1939  170.5401 C.3     1  UNL1        0.0898
     29 C         144.2768  140.2315  162.2195 C.3     1  UNL1        0.1191
     30 C         144.6064  141.6482  161.8532 C.3     1  UNL1        0.0524
     31 C         143.4504  141.6703  160.8977 C.3     1  UNL1        0.0947
     32 C         143.1207  140.2534  161.2640 C.3     1  UNL1        0.0524
     33 C         144.6328  139.3346  164.6317 C.3     1  UNL1        0.1740
     34 O         144.8612  139.2141  163.1541 O.3     1  UNL1       -0.3534
@<TRIPOS>BOND
     1    33    34    1
     2    29    34    1
     3    29    30    1
     4    30    31    1
     5    31     1    1
     6     1     2   ar
     7     2     3    2
     8     2     4   ar
     9     4     5    1
    10     4     6   ar
    11     6     7   ar
    12     7     8   ar
    13     8     9   ar
    14     9    10   ar
    15    10    11   ar
    16    11    12    1
    17    11    13   ar
    18    13    17    1
    19    17    18   ar
    20    18    19   ar
    21    19    20   ar
    22    20    23    1
    23    23    24    1
    24    24    25    1
    25    25    26    1
    26    26    27    1
    27    26    28    1
    28    20    21   ar
    29    21    22   ar
    30    13    14   ar
    31    14    15   ar
    32    15    16   ar
    33    31    32    1
    34    32    29    1
    35    16     1   ar
    36    16     6   ar
    37    15     9   ar
    38    22    17   ar
@<TRIPOS>MOLECULE
*****
 34 38 0 0 0
SMALL
GASTEIGER

@<TRIPOS>ATOM
      1 N         142.4333  141.3429  167.1440 N.ar    1  UNL1       -0.2815
      2 C         142.5947  141.9810  168.4919 C.ar    1  UNL1        0.3316
      3 O         143.7313  142.8611  168.9203 O.2     1  UNL1       -0.2463
      4 N         141.4199  141.5844  169.3361 N.ar    1  UNL1       -0.2765
      5 C         141.1755  141.9983  170.7570 C.3     1  UNL1        0.1352
      6 C         140.5325  140.7013  168.5100 C.ar    1  UNL1        0.0989
      7 C         139.2350  140.0137  168.8163 C.ar    1  UNL1        0.1175
      8 N         138.5639  139.1769  167.7679 N.ar    1  UNL1       -0.2422
      9 C         139.1902  139.0277  166.4131 C.ar    1  UNL1        0.0850
     10 C         138.5189  138.1908  165.3646 C.ar    1  UNL1        0.0488
     11 C         139.1452  138.0415  164.0098 C.ar    1  UNL1        0.1416
     12 F         138.4741  137.2047  162.9614 F       1  UNL1       -0.2041
     13 C         140.4427  138.7291  163.7035 C.ar    1  UNL1        0.0291
     14 C         141.1139  139.5659  164.7519 C.ar    1  UNL1        0.0053
     15 C         140.4876  139.7152  166.1067 C.ar    1  UNL1        0.0352
     16 C         141.1588  140.5520  167.1552 C.ar    1  UNL1        0.0826
     17 C         141.0690  138.5799  162.3487 C.ar    1  UNL1        0.0216
     18 C         142.4417  137.9892  162.2179 C.ar    1  UNL1        0.0064
     19 C         143.0680  137.8399  160.8631 C.ar    1  UNL1        0.0577
     20 C         142.3216  138.2813  159.6391 C.ar    1  UNL1        0.2249
     21 N         140.9490  138.8719  159.7699 N.ar    1  UNL1       -0.2101
     22 C         140.3227  139.0212  161.1247 C.ar    1  UNL1        0.1021
     23 O         142.9479  138.1321  158.2843 O.3     1  UNL1       -0.4587
     24 C         143.2716  139.3492  157.4694 C.3     1  UNL1        0.2244
     25 C         143.7422  140.6019  158.1470 C.3     1  UNL1        0.1202
     26 N         142.8778  141.8278  158.1412 N.3     1  UNL1       -0.2672
     27 C         141.4746  141.7536  157.6164 C.3     1  UNL1        0.0898
     28 C         143.4167  143.1280  158.6602 C.3     1  UNL1        0.0898
     29 C         144.7192  141.6566  164.3529 C.3     1  UNL1        0.1191
     30 C         144.0045  142.6212  165.2522 C.3     1  UNL1        0.0524
     31 C         143.3801  141.4729  165.9879 C.3     1  UNL1        0.0947
     32 C         144.0948  140.5082  165.0886 C.3     1  UNL1        0.0524
     33 C         145.1357  142.0536  161.8193 C.3     1  UNL1        0.1740
     34 O         145.6660  141.7866  163.1968 O.3     1  UNL1       -0.3534
@<TRIPOS>BOND
     1    33    34    1
     2    29    34    1
     3    29    30    1
     4    30    31    1
     5    31     1    1
     6     1     2   ar
     7     2     3    2
     8     2     4   ar
     9     4     5    1
    10     4     6   ar
    11     6     7   ar
    12     7     8   ar
    13     8     9   ar
    14     9    10   ar
    15    10    11   ar
    16    11    12    1
    17    11    13   ar
    18    13    17    1
    19    17    18   ar
    20    18    19   ar
    21    19    20   ar
    22    20    23    1
    23    23    24    1
    24    24    25    1
    25    25    26    1
    26    26    27    1
    27    26    28    1
    28    20    21   ar
    29    21    22   ar
    30    13    14   ar
    31    14    15   ar
    32    15    16   ar
    33    31    32    1
    34    32    29    1
    35    16     1   ar
    36    16     6   ar
    37    15     9   ar
    38    22    17   ar
@<TRIPOS>MOLECULE
*****
 34 38 0 0 0
SMALL
GASTEIGER

@<TRIPOS>ATOM
      1 N         141.8800  142.8434  160.6223 N.ar    1  UNL1       -0.2815
      2 C         142.3373  143.5889  159.4037 C.ar    1  UNL1        0.3316
      3 O         142.2098  145.0657  159.1741 O.2     1  UNL1       -0.2463
      4 N         142.9445  142.5983  158.4550 N.ar    1  UNL1       -0.2765
      5 C         143.5309  142.9105  157.1102 C.3     1  UNL1        0.1352
      6 C         142.8625  141.2405  159.0873 C.ar    1  UNL1        0.0989
      7 C         143.3019  139.8858  158.6165 C.ar    1  UNL1        0.1175
      8 N         143.0833  138.6827  159.4851 N.ar    1  UNL1       -0.2422
      9 C         142.4254  138.8341  160.8245 C.ar    1  UNL1        0.0850
     10 C         142.2069  137.6308  161.6931 C.ar    1  UNL1        0.0488
     11 C         141.5490  137.7823  163.0326 C.ar    1  UNL1        0.1416
     12 F         141.3305  136.5791  163.9012 F       1  UNL1       -0.2041
     13 C         141.1096  139.1371  163.5035 C.ar    1  UNL1        0.0291
     14 C         141.3282  140.3403  162.6349 C.ar    1  UNL1        0.0053
     15 C         141.9861  140.1888  161.2954 C.ar    1  UNL1        0.0352
     16 C         142.2046  141.3920  160.4268 C.ar    1  UNL1        0.0826
     17 C         140.4517  139.2885  164.8430 C.ar    1  UNL1        0.0216
     18 C         139.0402  138.8215  165.0424 C.ar    1  UNL1        0.0064
     19 C         138.3823  138.9730  166.3819 C.ar    1  UNL1        0.0577
     20 C         139.1359  139.5915  167.5219 C.ar    1  UNL1        0.2249
     21 N         140.5473  140.0584  167.3225 N.ar    1  UNL1       -0.2101
     22 C         141.2052  139.9070  165.9830 C.ar    1  UNL1        0.1021
     23 O         138.4780  139.7430  168.8614 O.3     1  UNL1       -0.4587
     24 C         139.1295  140.5732  169.9274 C.3     1  UNL1        0.2244
     25 C         140.2496  140.0003  170.7443 C.3     1  UNL1        0.1202
     26 N         141.6103  140.6296  170.6970 N.3     1  UNL1       -0.2672
     27 C         142.8171  139.7863  170.4097 C.3     1  UNL1        0.0898
     28 C         141.7644  142.1023  170.9370 C.3     1  UNL1        0.0898
     29 C         140.2742  144.2928  163.5265 C.3     1  UNL1        0.1191
     30 C         141.6941  144.0323  163.1191 C.3     1  UNL1        0.0524
     31 C         141.2149  143.4437  161.8253 C.3     1  UNL1        0.0947
     32 C         139.7949  143.7043  162.2328 C.3     1  UNL1        0.0524
     33 C         138.2021  144.5083  165.0789 C.3     1  UNL1        0.1740
     34 O         139.6091  144.8932  164.7295 O.3     1  UNL1       -0.3534
@<TRIPOS>BOND
     1    33    34    1
     2    29    34    1
     3    29    30    1
     4    30    31    1
     5    31     1    1
     6     1     2   ar
     7     2     3    2
     8     2     4   ar
     9     4     5    1
    10     4     6   ar
    11     6     7   ar
    12     7     8   ar
    13     8     9   ar
    14     9    10   ar
    15    10    11   ar
    16    11    12    1
    17    11    13   ar
    18    13    17    1
    19    17    18   ar
    20    18    19   ar
    21    19    20   ar
    22    20    23    1
    23    23    24    1
    24    24    25    1
    25    25    26    1
    26    26    27    1
    27    26    28    1
    28    20    21   ar
    29    21    22   ar
    30    13    14   ar
    31    14    15   ar
    32    15    16   ar
    33    31    32    1
    34    32    29    1
    35    16     1   ar
    36    16     6   ar
    37    15     9   ar
    38    22    17   ar
@<TRIPOS>MOLECULE
*****
 34 38 0 0 0
SMALL
GASTEIGER

@<TRIPOS>ATOM
      1 N         139.1575  140.2742  162.0615 N.ar    1  UNL1       -0.2815
      2 C         138.3017  140.0859  160.8441 C.ar    1  UNL1        0.3316
      3 O         136.9445  139.4480  160.8105 O.2     1  UNL1       -0.2463
      4 N         139.0413  140.6475  159.6662 N.ar    1  UNL1       -0.2765
      5 C         138.5537  140.6698  158.2479 C.3     1  UNL1        0.1352
      6 C         140.3543  141.1829  160.1556 C.ar    1  UNL1        0.0989
      7 C         141.4937  141.8507  159.4445 C.ar    1  UNL1        0.1175
      8 N         142.7049  142.2877  160.2138 N.ar    1  UNL1       -0.2422
      9 C         142.7767  142.0570  161.6942 C.ar    1  UNL1        0.0850
     10 C         143.9880  142.4942  162.4635 C.ar    1  UNL1        0.0488
     11 C         144.0598  142.2635  163.9439 C.ar    1  UNL1        0.1416
     12 F         145.2710  142.7006  164.7132 F       1  UNL1       -0.2041
     13 C         142.9203  141.5957  164.6550 C.ar    1  UNL1        0.0291
     14 C         141.7091  141.1586  163.8857 C.ar    1  UNL1        0.0053
     15 C         141.6373  141.3893  162.4053 C.ar    1  UNL1        0.0352
     16 C         140.4261  140.9522  161.6360 C.ar    1  UNL1        0.0826
     17 C         142.9921  141.3650  166.1354 C.ar    1  UNL1        0.0216
     18 C         143.2047  142.5226  167.0654 C.ar    1  UNL1        0.0064
     19 C         143.2765  142.2919  168.5459 C.ar    1  UNL1        0.0577
     20 C         143.1357  140.9036  169.0963 C.ar    1  UNL1        0.2249
     21 N         142.9232  139.7460  168.1663 N.ar    1  UNL1       -0.2101
     22 C         142.8514  139.9767  166.6859 C.ar    1  UNL1        0.1021
     23 O         143.2075  140.6729  170.5767 O.3     1  UNL1       -0.4587
     24 C         141.9971  140.9058  171.4316 C.3     1  UNL1        0.2244
     25 C         140.7019  140.2262  171.0989 C.3     1  UNL1        0.1202
     26 N         139.6097  140.9895  170.4101 N.3     1  UNL1       -0.2672
     27 C         138.3745  140.2766  169.9455 C.3     1  UNL1        0.0898
     28 C         139.7528  142.4658  170.1859 C.3     1  UNL1        0.0898
     29 C         138.3099  139.2685  165.4356 C.3     1  UNL1        0.1191
     30 C         138.1248  140.5152  164.6223 C.3     1  UNL1        0.0524
     31 C         138.8064  139.8577  163.4591 C.3     1  UNL1        0.0947
     32 C         138.9916  138.6109  164.2725 C.3     1  UNL1        0.0524
     33 C         137.2184  137.5691  167.0698 C.3     1  UNL1        0.1740
     34 O         137.9589  138.8520  166.8332 O.3     1  UNL1       -0.3534
@<TRIPOS>BOND
     1    33    34    1
     2    29    34    1
     3    29    30    1
     4    30    31    1
     5    31     1    1
     6     1     2   ar
     7     2     3    2
     8     2     4   ar
     9     4     5    1
    10     4     6   ar
    11     6     7   ar
    12     7     8   ar
    13     8     9   ar
    14     9    10   ar
    15    10    11   ar
    16    11    12    1
    17    11    13   ar
    18    13    17    1
    19    17    18   ar
    20    18    19   ar
    21    19    20   ar
    22    20    23    1
    23    23    24    1
    24    24    25    1
    25    25    26    1
    26    26    27    1
    27    26    28    1
    28    20    21   ar
    29    21    22   ar
    30    13    14   ar
    31    14    15   ar
    32    15    16   ar
    33    31    32    1
    34    32    29    1
    35    16     1   ar
    36    16     6   ar
    37    15     9   ar
    38    22    17   ar
@<TRIPOS>MOLECULE
*****
 34 38 0 0 0
SMALL
GASTEIGER

@<TRIPOS>ATOM
      1 N         140.6411  140.8412  159.5914 N.ar    1  UNL1       -0.2815
      2 C         140.8324  140.7380  158.1073 C.ar    1  UNL1        0.3316
      3 O         141.1369  139.4840  157.3426 O.2     1  UNL1       -0.2463
      4 N         140.6656  142.1090  157.5221 N.ar    1  UNL1       -0.2765
      5 C         140.7741  142.4668  156.0694 C.3     1  UNL1        0.1352
      6 C         140.3712  143.0595  158.6445 C.ar    1  UNL1        0.0989
      7 C         140.1151  144.5373  158.6672 C.ar    1  UNL1        0.1175
      8 N         139.8437  145.2315  159.9689 N.ar    1  UNL1       -0.2422
      9 C         139.8286  144.4479  161.2479 C.ar    1  UNL1        0.0850
     10 C         139.5573  145.1421  162.5497 C.ar    1  UNL1        0.0488
     11 C         139.5422  144.3586  163.8286 C.ar    1  UNL1        0.1416
     12 F         139.2709  145.0527  165.1303 F       1  UNL1       -0.2041
     13 C         139.7984  142.8807  163.8059 C.ar    1  UNL1        0.0291
     14 C         140.0697  142.1865  162.5042 C.ar    1  UNL1        0.0053
     15 C         140.0848  142.9701  161.2252 C.ar    1  UNL1        0.0352
     16 C         140.3561  142.2760  159.9235 C.ar    1  UNL1        0.0826
     17 C         139.7833  142.0971  165.0848 C.ar    1  UNL1        0.0216
     18 C         140.4693  142.6383  166.3041 C.ar    1  UNL1        0.0064
     19 C         140.4542  141.8547  167.5831 C.ar    1  UNL1        0.0577
     20 C         139.7530  140.5300  167.6428 C.ar    1  UNL1        0.2249
     21 N         139.0670  139.9889  166.4236 N.ar    1  UNL1       -0.2101
     22 C         139.0821  140.7725  165.1446 C.ar    1  UNL1        0.1021
     23 O         139.7379  139.7464  168.9218 O.3     1  UNL1       -0.4587
     24 C         139.4426  140.4363  170.2206 C.3     1  UNL1        0.2244
     25 C         140.5418  140.6642  171.2156 C.3     1  UNL1        0.1202
     26 N         141.9126  141.0489  170.7438 N.3     1  UNL1       -0.2672
     27 C         142.8891  139.9877  170.3312 C.3     1  UNL1        0.0898
     28 C         142.3071  142.4950  170.6846 C.3     1  UNL1        0.0898
     29 C         140.8335  138.1065  161.9576 C.3     1  UNL1        0.1191
     30 C         141.7972  139.1354  161.4450 C.3     1  UNL1        0.0524
     31 C         140.7208  139.7085  160.5715 C.3     1  UNL1        0.0947
     32 C         139.7571  138.6796  161.0841 C.3     1  UNL1        0.0524
     33 C         141.0665  137.2587  164.4024 C.3     1  UNL1        0.1740
     34 O         140.9132  136.9738  162.9377 O.3     1  UNL1       -0.3534
@<TRIPOS>BOND
     1    33    34    1
     2    29    34    1
     3    29    30    1
     4    30    31    1
     5    31     1    1
     6     1     2   ar
     7     2     3    2
     8     2     4   ar
     9     4     5    1
    10     4     6   ar
    11     6     7   ar
    12     7     8   ar
    13     8     9   ar
    14     9    10   ar
    15    10    11   ar
    16    11    12    1
    17    11    13   ar
    18    13    17    1
    19    17    18   ar
    20    18    19   ar
    21    19    20   ar
    22    20    23    1
    23    23    24    1
    24    24    25    1
    25    25    26    1
    26    26    27    1
    27    26    28    1
    28    20    21   ar
    29    21    22   ar
    30    13    14   ar
    31    14    15   ar
    32    15    16   ar
    33    31    32    1
    34    32    29    1
    35    16     1   ar
    36    16     6   ar
    37    15     9   ar
    38    22    17   ar
@<TRIPOS>MOLECULE
*****
 34 38 0 0 0
SMALL
GASTEIGER

@<TRIPOS>ATOM
      1 N         141.1135  143.5714  160.4542 N.ar    1  UNL1       -0.2815
      2 C         141.0363  144.3989  159.2055 C.ar    1  UNL1        0.3316
      3 O         141.8520  145.6216  158.9062 O.2     1  UNL1       -0.2463
      4 N         140.0001  143.7889  158.3086 N.ar    1  UNL1       -0.2765
      5 C         139.5977  144.2946  156.9550 C.3     1  UNL1        0.1352
      6 C         139.4369  142.5845  159.0030 C.ar    1  UNL1        0.0989
      7 C         138.3865  141.5929  158.5992 C.ar    1  UNL1        0.1175
      8 N         138.0241  140.4668  159.5214 N.ar    1  UNL1       -0.2422
      9 C         138.7122  140.3323  160.8475 C.ar    1  UNL1        0.0850
     10 C         138.3498  139.2061  161.7697 C.ar    1  UNL1        0.0488
     11 C         139.0379  139.0717  163.0958 C.ar    1  UNL1        0.1416
     12 F         138.6755  137.9456  164.0180 F       1  UNL1       -0.2041
     13 C         140.0884  140.0634  163.4996 C.ar    1  UNL1        0.0291
     14 C         140.4508  141.1895  162.5774 C.ar    1  UNL1        0.0053
     15 C         139.7627  141.3239  161.2513 C.ar    1  UNL1        0.0352
     16 C         140.1250  142.4500  160.3291 C.ar    1  UNL1        0.0826
     17 C         140.7765  139.9289  164.8257 C.ar    1  UNL1        0.0216
     18 C         140.1662  140.5391  166.0526 C.ar    1  UNL1        0.0064
     19 C         140.8543  140.4047  167.3787 C.ar    1  UNL1        0.0577
     20 C         142.1527  139.6600  167.4778 C.ar    1  UNL1        0.2249
     21 N         142.7629  139.0499  166.2509 N.ar    1  UNL1       -0.2101
     22 C         142.0748  139.1843  164.9249 C.ar    1  UNL1        0.1021
     23 O         142.8408  139.5256  168.8039 O.3     1  UNL1       -0.4587
     24 C         142.0319  139.4603  170.0654 C.3     1  UNL1        0.2244
     25 C         142.0656  140.6019  171.0379 C.3     1  UNL1        0.1202
     26 N         141.6446  141.9732  170.5995 N.3     1  UNL1       -0.2672
     27 C         142.6807  142.9995  170.2484 C.3     1  UNL1        0.0898
     28 C         140.1873  142.3183  170.5123 C.3     1  UNL1        0.0898
     29 C         143.3018  144.1748  163.2757 C.3     1  UNL1        0.1191
     30 C         143.4284  143.4423  161.9729 C.3     1  UNL1        0.0524
     31 C         142.0200  143.8213  161.6229 C.3     1  UNL1        0.0947
     32 C         141.8933  144.5539  162.9258 C.3     1  UNL1        0.0524
     33 C         144.3985  143.3629  165.4867 C.3     1  UNL1        0.1740
     34 O         144.2083  144.4248  164.4444 O.3     1  UNL1       -0.3534
@<TRIPOS>BOND
     1    33    34    1
     2    29    34    1
     3    29    30    1
     4    30    31    1
     5    31     1    1
     6     1     2   ar
     7     2     3    2
     8     2     4   ar
     9     4     5    1
    10     4     6   ar
    11     6     7   ar
    12     7     8   ar
    13     8     9   ar
    14     9    10   ar
    15    10    11   ar
    16    11    12    1
    17    11    13   ar
    18    13    17    1
    19    17    18   ar
    20    18    19   ar
    21    19    20   ar
    22    20    23    1
    23    23    24    1
    24    24    25    1
    25    25    26    1
    26    26    27    1
    27    26    28    1
    28    20    21   ar
    29    21    22   ar
    30    13    14   ar
    31    14    15   ar
    32    15    16   ar
    33    31    32    1
    34    32    29    1
    35    16     1   ar
    36    16     6   ar
    37    15     9   ar
    38    22    17   ar
@<TRIPOS>MOLECULE
*****
 34 38 0 0 0
SMALL
GASTEIGER

@<TRIPOS>ATOM
      1 N         142.8256  139.7285  165.7988 N.ar    1  UNL1       -0.2815
      2 C         143.2015  138.9229  167.0070 C.ar    1  UNL1        0.3316
      3 O         144.0780  137.7056  167.0173 O.2     1  UNL1       -0.2463
      4 N         142.5470  139.5483  168.2030 N.ar    1  UNL1       -0.2765
      5 C         142.6540  139.0662  169.6194 C.3     1  UNL1        0.1352
      6 C         141.7666  140.7404  167.7340 C.ar    1  UNL1        0.0989
      7 C         140.9215  141.7388  168.4680 C.ar    1  UNL1        0.1175
      8 N         140.2486  142.8486  167.7161 N.ar    1  UNL1       -0.2422
      9 C         140.4208  142.9600  166.2302 C.ar    1  UNL1        0.0850
     10 C         139.7478  144.0699  165.4783 C.ar    1  UNL1        0.0488
     11 C         139.9200  144.1813  163.9924 C.ar    1  UNL1        0.1416
     12 F         139.2471  145.2911  163.2405 F       1  UNL1       -0.2041
     13 C         140.7652  143.1828  163.2584 C.ar    1  UNL1        0.0291
     14 C         141.4381  142.0730  164.0103 C.ar    1  UNL1        0.0053
     15 C         141.2659  141.9616  165.4962 C.ar    1  UNL1        0.0352
     16 C         141.9388  140.8517  166.2481 C.ar    1  UNL1        0.0826
     17 C         140.9374  143.2942  161.7725 C.ar    1  UNL1        0.0216
     18 C         140.3165  142.2722  160.8668 C.ar    1  UNL1        0.0064
     19 C         140.4887  142.3836  159.3809 C.ar    1  UNL1        0.0577
     20 C         141.2819  143.5169  158.8006 C.ar    1  UNL1        0.2249
     21 N         141.9027  144.5388  159.7063 N.ar    1  UNL1       -0.2101
     22 C         141.7305  144.4274  161.1922 C.ar    1  UNL1        0.1021
     23 O         141.4541  143.6283  157.3147 O.3     1  UNL1       -0.4587
     24 C         142.8251  143.5528  156.7109 C.3     1  UNL1        0.2244
     25 C         143.6594  142.3201  156.8962 C.3     1  UNL1        0.1202
     26 N         144.9340  142.3886  157.6841 N.3     1  UNL1       -0.2672
     27 C         146.2550  142.2519  156.9868 C.3     1  UNL1        0.0898
     28 C         144.8876  142.5937  159.1693 C.3     1  UNL1        0.0898
     29 C         143.8750  139.0762  162.3947 C.3     1  UNL1        0.1191
     30 C         142.7389  138.6185  163.2606 C.3     1  UNL1        0.0524
     31 C         143.2603  139.4583  164.3888 C.3     1  UNL1        0.0947
     32 C         144.3964  139.9161  163.5229 C.3     1  UNL1        0.0524
     33 C         143.4731  139.2880  159.8367 C.3     1  UNL1        0.1740
     34 O         144.3096  138.8060  160.9847 O.3     1  UNL1       -0.3534
@<TRIPOS>BOND
     1    33    34    1
     2    29    34    1
     3    29    30    1
     4    30    31    1
     5    31     1    1
     6     1     2   ar
     7     2     3    2
     8     2     4   ar
     9     4     5    1
    10     4     6   ar
    11     6     7   ar
    12     7     8   ar
    13     8     9   ar
    14     9    10   ar
    15    10    11   ar
    16    11    12    1
    17    11    13   ar
    18    13    17    1
    19    17    18   ar
    20    18    19   ar
    21    19    20   ar
    22    20    23    1
    23    23    24    1
    24    24    25    1
    25    25    26    1
    26    26    27    1
    27    26    28    1
    28    20    21   ar
    29    21    22   ar
    30    13    14   ar
    31    14    15   ar
    32    15    16   ar
    33    31    32    1
    34    32    29    1
    35    16     1   ar
    36    16     6   ar
    37    15     9   ar
    38    22    17   ar
