@<TRIPOS>MOLECULE
*****
 22 24 0 0 0
SMALL
GASTEIGER

@<TRIPOS>ATOM
      1 C         140.5790  140.7899  168.7126 C.ar    1  UNL1        0.1378
      2 N         139.3364  139.9544  168.6245 N.ar    1  UNL1       -0.1770
      3 C         138.8403  139.4867  167.2884 C.ar    1  UNL1        0.3552
      4 O         137.5976  138.6511  167.2003 O.2     1  UNL1       -0.2440
      5 N         139.5868  139.8545  166.0404 N.ar    1  UNL1       -0.2573
      6 C         140.8295  140.6900  166.1285 C.ar    1  UNL1        0.0718
      7 C         141.5760  141.0578  164.8806 C.ar    1  UNL1        0.0291
      8 C         142.8186  141.8933  164.9687 C.ar    1  UNL1        0.0591
      9 CL        143.5652  142.2611  163.7208 Cl      1  UNL1       -0.0822
     10 C         143.3147  142.3610  166.3048 C.ar    1  UNL1        0.0116
     11 C         142.5681  141.9933  167.5528 C.ar    1  UNL1        0.0051
     12 C         141.3256  141.1578  167.4646 C.ar    1  UNL1        0.0480
     13 C         139.0907  139.3867  164.7044 C.ar    1  UNL1        0.0874
     14 C         139.4663  138.0251  164.1996 C.ar    1  UNL1        0.0208
     15 C         138.9703  137.5574  162.8635 C.ar    1  UNL1        0.0222
     16 C         138.0986  138.4512  162.0322 C.ar    1  UNL1        0.0990
     17 N         137.7229  139.8129  162.5370 N.ar    1  UNL1       -0.2408
     18 C         138.2190  140.2807  163.8731 C.ar    1  UNL1        0.1164
     19 N         141.0750  141.2577  170.0487 N.pl3   1  UNL1       -0.2913
     20 C         142.1713  140.5082  170.7461 C.3     1  UNL1        0.1136
     21 C         140.3924  143.7612  169.9200 C.3     1  UNL1        0.0232
     22 C         140.4748  142.4750  170.6874 C.3     1  UNL1        0.0923
@<TRIPOS>BOND
     1    21    22    1
     2    22    19    1
     3    19    20    1
     4    19     1    1
     5     1     2   ar
     6     2     3   ar
     7     3     4    2
     8     3     5   ar
     9     5    13    1
    10    13    14   ar
    11    14    15   ar
    12    15    16   ar
    13    16    17   ar
    14    17    18   ar
    15     5     6   ar
    16     6     7   ar
    17     7     8   ar
    18     8     9    1
    19     8    10   ar
    20    10    11   ar
    21    11    12   ar
    22    12     1   ar
    23    18    13   ar
    24    12     6   ar
@<TRIPOS>MOLECULE
*****
 22 24 0 0 0
SMALL
GASTEIGER

@<TRIPOS>ATOM
      1 C         142.3916  139.7648  164.4703 C.ar    1  UNL1        0.1378
      2 N         142.9715  139.3772  165.7982 N.ar    1  UNL1       -0.1770
      3 C         142.4150  139.9663  167.0605 C.ar    1  UNL1        0.3552
      4 O         142.9950  139.5786  168.3884 O.2     1  UNL1       -0.2440
      5 N         141.2786  140.9431  166.9948 N.ar    1  UNL1       -0.2573
      6 C         140.6986  141.3309  165.6668 C.ar    1  UNL1        0.0718
      7 C         139.5622  142.3077  165.6011 C.ar    1  UNL1        0.0291
      8 C         138.9823  142.6953  164.2732 C.ar    1  UNL1        0.0591
      9 CL        137.8459  143.6722  164.2075 Cl      1  UNL1       -0.0822
     10 C         139.5388  142.1062  163.0110 C.ar    1  UNL1        0.0116
     11 C         140.6752  141.1294  163.0767 C.ar    1  UNL1        0.0051
     12 C         141.2551  140.7417  164.4046 C.ar    1  UNL1        0.0480
     13 C         140.7221  141.5323  168.2570 C.ar    1  UNL1        0.0874
     14 C         141.1709  142.8890  168.7129 C.ar    1  UNL1        0.0208
     15 C         140.6144  143.4781  169.9752 C.ar    1  UNL1        0.0222
     16 C         139.6091  142.7106  170.7814 C.ar    1  UNL1        0.0990
     17 N         139.1602  141.3538  170.3255 N.ar    1  UNL1       -0.2408
     18 C         139.7167  140.7647  169.0633 C.ar    1  UNL1        0.1164
     19 N         142.9481  139.1757  163.2081 N.pl3   1  UNL1       -0.2913
     20 C         144.0669  139.8674  162.4873 C.3     1  UNL1        0.1136
     21 C         141.1540  137.2979  163.2804 C.3     1  UNL1        0.0232
     22 C         142.3857  137.8947  162.6668 C.3     1  UNL1        0.0923
@<TRIPOS>BOND
     1    21    22    1
     2    22    19    1
     3    19    20    1
     4    19     1    1
     5     1     2   ar
     6     2     3   ar
     7     3     4    2
     8     3     5   ar
     9     5    13    1
    10    13    14   ar
    11    14    15   ar
    12    15    16   ar
    13    16    17   ar
    14    17    18   ar
    15     5     6   ar
    16     6     7   ar
    17     7     8   ar
    18     8     9    1
    19     8    10   ar
    20    10    11   ar
    21    11    12   ar
    22    12     1   ar
    23    18    13   ar
    24    12     6   ar
@<TRIPOS>MOLECULE
*****
 22 24 0 0 0
SMALL
GASTEIGER

@<TRIPOS>ATOM
      1 C         142.0574  140.7159  168.5676 C.ar    1  UNL1        0.1378
      2 N         142.9135  139.4979  168.3843 N.ar    1  UNL1       -0.1770
      3 C         143.1566  138.9521  167.0085 C.ar    1  UNL1        0.3552
      4 O         144.0126  137.7340  166.8252 O.2     1  UNL1       -0.2440
      5 N         142.5436  139.6243  165.8159 N.ar    1  UNL1       -0.2573
      6 C         141.6876  140.8424  165.9991 C.ar    1  UNL1        0.0718
      7 C         141.0747  141.5147  164.8065 C.ar    1  UNL1        0.0291
      8 C         140.2186  142.7327  164.9898 C.ar    1  UNL1        0.0591
      9 CL        139.6057  143.4050  163.7971 Cl      1  UNL1       -0.0822
     10 C         139.9755  143.2784  166.3656 C.ar    1  UNL1        0.0116
     11 C         140.5884  142.6062  167.5582 C.ar    1  UNL1        0.0051
     12 C         141.4445  141.3882  167.3750 C.ar    1  UNL1        0.0480
     13 C         142.7867  139.0786  164.4400 C.ar    1  UNL1        0.0874
     14 C         143.9962  139.5102  163.6648 C.ar    1  UNL1        0.0208
     15 C         144.2393  138.9644  162.2889 C.ar    1  UNL1        0.0222
     16 C         143.2729  137.9871  161.6882 C.ar    1  UNL1        0.0990
     17 N         142.0634  137.5554  162.4634 N.ar    1  UNL1       -0.2408
     18 C         141.8203  138.1012  163.8393 C.ar    1  UNL1        0.1164
     19 N         141.8143  141.2616  169.9435 N.pl3   1  UNL1       -0.2913
     20 C         140.7369  140.6721  170.8046 C.3     1  UNL1        0.1136
     21 C         144.0541  142.5780  169.9663 C.3     1  UNL1        0.0232
     22 C         142.6487  142.3970  170.4582 C.3     1  UNL1        0.0923
@<TRIPOS>BOND
     1    21    22    1
     2    22    19    1
     3    19    20    1
     4    19     1    1
     5     1     2   ar
     6     2     3   ar
     7     3     4    2
     8     3     5   ar
     9     5    13    1
    10    13    14   ar
    11    14    15   ar
    12    15    16   ar
    13    16    17   ar
    14    17    18   ar
    15     5     6   ar
    16     6     7   ar
    17     7     8   ar
    18     8     9    1
    19     8    10   ar
    20    10    11   ar
    21    11    12   ar
    22    12     1   ar
    23    18    13   ar
    24    12     6   ar
@<TRIPOS>MOLECULE
*****
 22 24 0 0 0
SMALL
GASTEIGER

@<TRIPOS>ATOM
      1 C         139.7056  139.7021  164.4613 C.ar    1  UNL1        0.1378
      2 N         139.2480  139.2986  165.8316 N.ar    1  UNL1       -0.1770
      3 C         139.8126  139.9810  167.0422 C.ar    1  UNL1        0.3552
      4 O         139.3549  139.5774  168.4125 O.2     1  UNL1       -0.2440
      5 N         140.8350  141.0669  166.8825 N.ar    1  UNL1       -0.2573
      6 C         141.2927  141.4705  165.5121 C.ar    1  UNL1        0.0718
      7 C         142.3150  142.5564  165.3524 C.ar    1  UNL1        0.0291
      8 C         142.7727  142.9599  163.9822 C.ar    1  UNL1        0.0591
      9 CL        143.7951  144.0459  163.8224 Cl      1  UNL1       -0.0822
     10 C         142.2080  142.2775  162.7716 C.ar    1  UNL1        0.0116
     11 C         141.1857  141.1915  162.9313 C.ar    1  UNL1        0.0051
     12 C         140.7280  140.7880  164.3016 C.ar    1  UNL1        0.0480
     13 C         141.3996  141.7493  168.0930 C.ar    1  UNL1        0.0874
     14 C         140.6495  142.8780  168.7360 C.ar    1  UNL1        0.0208
     15 C         141.2142  143.5604  169.9466 C.ar    1  UNL1        0.0222
     16 C         142.5289  143.1142  170.5141 C.ar    1  UNL1        0.0990
     17 N         143.2791  141.9855  169.8712 N.ar    1  UNL1       -0.2408
     18 C         142.7145  141.3030  168.6606 C.ar    1  UNL1        0.1164
     19 N         139.1410  139.0196  163.2508 N.pl3   1  UNL1       -0.2913
     20 C         137.9719  139.6204  162.5281 C.3     1  UNL1        0.1136
     21 C         140.9818  137.1937  163.4163 C.3     1  UNL1        0.0232
     22 C         139.7454  137.7364  162.7629 C.3     1  UNL1        0.0923
@<TRIPOS>BOND
     1    21    22    1
     2    22    19    1
     3    19    20    1
     4    19     1    1
     5     1     2   ar
     6     2     3   ar
     7     3     4    2
     8     3     5   ar
     9     5    13    1
    10    13    14   ar
    11    14    15   ar
    12    15    16   ar
    13    16    17   ar
    14    17    18   ar
    15     5     6   ar
    16     6     7   ar
    17     7     8   ar
    18     8     9    1
    19     8    10   ar
    20    10    11   ar
    21    11    12   ar
    22    12     1   ar
    23    18    13   ar
    24    12     6   ar
@<TRIPOS>MOLECULE
*****
 22 24 0 0 0
SMALL
GASTEIGER

@<TRIPOS>ATOM
      1 C         143.0398  140.4250  164.0557 C.ar    1  UNL1        0.1378
      2 N         143.5261  139.4345  165.0718 N.ar    1  UNL1       -0.1770
      3 C         143.0110  139.4898  166.4795 C.ar    1  UNL1        0.3552
      4 O         143.4973  138.4993  167.4956 O.2     1  UNL1       -0.2440
      5 N         142.0095  140.5356  166.8711 N.ar    1  UNL1       -0.2573
      6 C         141.5231  141.5261  165.8550 C.ar    1  UNL1        0.0718
      7 C         140.5216  142.5719  166.2466 C.ar    1  UNL1        0.0291
      8 C         140.0353  143.5623  165.2306 C.ar    1  UNL1        0.0591
      9 CL        139.0338  144.6081  165.6222 Cl      1  UNL1       -0.0822
     10 C         140.5504  143.5070  163.8229 C.ar    1  UNL1        0.0116
     11 C         141.5519  142.4613  163.4313 C.ar    1  UNL1        0.0051
     12 C         142.0382  141.4708  164.4473 C.ar    1  UNL1        0.0480
     13 C         141.4943  140.5909  168.2788 C.ar    1  UNL1        0.0874
     14 C         142.2821  141.3028  169.3383 C.ar    1  UNL1        0.0208
     15 C         141.7670  141.3581  170.7460 C.ar    1  UNL1        0.0222
     16 C         140.4641  140.7015  171.0942 C.ar    1  UNL1        0.0990
     17 N         139.6762  139.9895  170.0346 N.ar    1  UNL1       -0.2408
     18 C         140.1914  139.9342  168.6269 C.ar    1  UNL1        0.1164
     19 N         143.5549  140.3697  162.6481 N.pl3   1  UNL1       -0.2913
     20 C         142.8366  139.5491  161.6182 C.3     1  UNL1        0.1136
     21 C         145.6527  141.7388  163.3373 C.3     1  UNL1        0.0232
     22 C         144.7884  141.1351  162.2702 C.3     1  UNL1        0.0923
@<TRIPOS>BOND
     1    21    22    1
     2    22    19    1
     3    19    20    1
     4    19     1    1
     5     1     2   ar
     6     2     3   ar
     7     3     4    2
     8     3     5   ar
     9     5    13    1
    10    13    14   ar
    11    14    15   ar
    12    15    16   ar
    13    16    17   ar
    14    17    18   ar
    15     5     6   ar
    16     6     7   ar
    17     7     8   ar
    18     8     9    1
    19     8    10   ar
    20    10    11   ar
    21    11    12   ar
    22    12     1   ar
    23    18    13   ar
    24    12     6   ar
@<TRIPOS>MOLECULE
*****
 22 24 0 0 0
SMALL
GASTEIGER

@<TRIPOS>ATOM
      1 C         143.4934  142.4877  164.5775 C.ar    1  UNL1        0.1378
      2 N         144.0127  142.8580  165.9351 N.ar    1  UNL1       -0.1770
      3 C         143.2975  142.3857  167.1662 C.ar    1  UNL1        0.3552
      4 O         143.8169  142.7561  168.5238 O.2     1  UNL1       -0.2440
      5 N         142.0630  141.5432  167.0396 N.ar    1  UNL1       -0.2573
      6 C         141.5436  141.1728  165.6820 C.ar    1  UNL1        0.0718
      7 C         140.3091  140.3303  165.5554 C.ar    1  UNL1        0.0291
      8 C         139.7898  139.9599  164.1978 C.ar    1  UNL1        0.0591
      9 CL        138.5552  139.1173  164.0712 Cl      1  UNL1       -0.0822
     10 C         140.5050  140.4322  162.9668 C.ar    1  UNL1        0.0116
     11 C         141.7395  141.2747  163.0933 C.ar    1  UNL1        0.0051
     12 C         142.2588  141.6450  164.4509 C.ar    1  UNL1        0.0480
     13 C         141.3478  141.0710  168.2707 C.ar    1  UNL1        0.0874
     14 C         140.2085  141.8707  168.8294 C.ar    1  UNL1        0.0208
     15 C         139.4933  141.3985  170.0605 C.ar    1  UNL1        0.0222
     16 C         139.9175  140.1265  170.7328 C.ar    1  UNL1        0.0990
     17 N         141.0569  139.3267  170.1741 N.ar    1  UNL1       -0.2408
     18 C         141.7721  139.7989  168.9430 C.ar    1  UNL1        0.1164
     19 N         144.2085  142.9599  163.3464 N.pl3   1  UNL1       -0.2913
     20 C         145.2328  142.0819  162.6908 C.3     1  UNL1        0.1136
     21 C         142.8721  145.1866  163.4243 C.3     1  UNL1        0.0232
     22 C         143.8994  144.3102  162.7710 C.3     1  UNL1        0.0923
@<TRIPOS>BOND
     1    21    22    1
     2    22    19    1
     3    19    20    1
     4    19     1    1
     5     1     2   ar
     6     2     3   ar
     7     3     4    2
     8     3     5   ar
     9     5    13    1
    10    13    14   ar
    11    14    15   ar
    12    15    16   ar
    13    16    17   ar
    14    17    18   ar
    15     5     6   ar
    16     6     7   ar
    17     7     8   ar
    18     8     9    1
    19     8    10   ar
    20    10    11   ar
    21    11    12   ar
    22    12     1   ar
    23    18    13   ar
    24    12     6   ar
@<TRIPOS>MOLECULE
*****
 22 24 0 0 0
SMALL
GASTEIGER

@<TRIPOS>ATOM
      1 C         139.1276  139.6429  164.3854 C.ar    1  UNL1        0.1378
      2 N         138.4324  139.2997  165.6695 N.ar    1  UNL1       -0.1770
      3 C         139.1091  139.5623  166.9821 C.ar    1  UNL1        0.3552
      4 O         138.4138  139.2191  168.2662 O.2     1  UNL1       -0.2440
      5 N         140.4810  140.1680  167.0108 N.ar    1  UNL1       -0.2573
      6 C         141.1763  140.5112  165.7267 C.ar    1  UNL1        0.0718
      7 C         142.5483  141.1169  165.7553 C.ar    1  UNL1        0.0291
      8 C         143.2435  141.4600  164.4712 C.ar    1  UNL1        0.0591
      9 CL        144.6155  142.0657  164.4998 Cl      1  UNL1       -0.0822
     10 C         142.5668  141.1975  163.1585 C.ar    1  UNL1        0.0116
     11 C         141.1949  140.5918  163.1299 C.ar    1  UNL1        0.0051
     12 C         140.4996  140.2486  164.4140 C.ar    1  UNL1        0.0480
     13 C         141.1577  140.4305  168.3235 C.ar    1  UNL1        0.0874
     14 C         140.7922  141.6436  169.1263 C.ar    1  UNL1        0.0208
     15 C         141.4689  141.9062  170.4390 C.ar    1  UNL1        0.0222
     16 C         142.5111  140.9556  170.9488 C.ar    1  UNL1        0.0990
     17 N         142.8768  139.7424  170.1460 N.ar    1  UNL1       -0.2408
     18 C         142.2001  139.4798  168.8333 C.ar    1  UNL1        0.1164
     19 N         138.4509  139.3803  163.0727 N.pl3   1  UNL1       -0.2913
     20 C         138.5353  138.0211  162.4441 C.3     1  UNL1        0.1136
     21 C         137.3502  141.7329  163.1355 C.3     1  UNL1        0.0232
     22 C         137.6898  140.4771  162.3887 C.3     1  UNL1        0.0923
@<TRIPOS>BOND
     1    21    22    1
     2    22    19    1
     3    19    20    1
     4    19     1    1
     5     1     2   ar
     6     2     3   ar
     7     3     4    2
     8     3     5   ar
     9     5    13    1
    10    13    14   ar
    11    14    15   ar
    12    15    16   ar
    13    16    17   ar
    14    17    18   ar
    15     5     6   ar
    16     6     7   ar
    17     7     8   ar
    18     8     9    1
    19     8    10   ar
    20    10    11   ar
    21    11    12   ar
    22    12     1   ar
    23    18    13   ar
    24    12     6   ar
@<TRIPOS>MOLECULE
*****
 22 24 0 0 0
SMALL
GASTEIGER

@<TRIPOS>ATOM
      1 C         142.4767  142.3503  163.6357 C.ar    1  UNL1        0.1378
      2 N         141.3081  143.1589  164.1157 N.ar    1  UNL1       -0.1770
      3 C         140.5995  142.7752  165.3809 C.ar    1  UNL1        0.3552
      4 O         139.4309  143.5839  165.8608 O.2     1  UNL1       -0.2440
      5 N         141.0595  141.5828  166.1660 N.ar    1  UNL1       -0.2573
      6 C         142.2282  140.7741  165.6860 C.ar    1  UNL1        0.0718
      7 C         142.6882  139.5817  166.4712 C.ar    1  UNL1        0.0291
      8 C         143.8568  138.7730  165.9912 C.ar    1  UNL1        0.0591
      9 CL        144.3169  137.5805  166.7764 Cl      1  UNL1       -0.0822
     10 C         144.5654  139.1568  164.7261 C.ar    1  UNL1        0.0116
     11 C         144.1054  140.3492  163.9409 C.ar    1  UNL1        0.0051
     12 C         142.9368  141.1578  164.4209 C.ar    1  UNL1        0.0480
     13 C         140.3510  141.1990  167.4312 C.ar    1  UNL1        0.0874
     14 C         140.5703  141.9937  168.6843 C.ar    1  UNL1        0.0208
     15 C         139.8617  141.6100  169.9494 C.ar    1  UNL1        0.0222
     16 C         138.9338  140.4315  169.9615 C.ar    1  UNL1        0.0990
     17 N         138.7144  139.6367  168.7084 N.ar    1  UNL1       -0.2408
     18 C         139.4230  140.0205  167.4432 C.ar    1  UNL1        0.1164
     19 N         143.1853  142.7340  162.3705 N.pl3   1  UNL1       -0.2913
     20 C         144.3463  143.6825  162.4193 C.3     1  UNL1        0.1136
     21 C         141.5725  141.2199  161.0080 C.3     1  UNL1        0.0232
     22 C         142.7328  142.1693  161.0566 C.3     1  UNL1        0.0923
@<TRIPOS>BOND
     1    21    22    1
     2    22    19    1
     3    19    20    1
     4    19     1    1
     5     1     2   ar
     6     2     3   ar
     7     3     4    2
     8     3     5   ar
     9     5    13    1
    10    13    14   ar
    11    14    15   ar
    12    15    16   ar
    13    16    17   ar
    14    17    18   ar
    15     5     6   ar
    16     6     7   ar
    17     7     8   ar
    18     8     9    1
    19     8    10   ar
    20    10    11   ar
    21    11    12   ar
    22    12     1   ar
    23    18    13   ar
    24    12     6   ar
@<TRIPOS>MOLECULE
*****
 22 24 0 0 0
SMALL
GASTEIGER

@<TRIPOS>ATOM
      1 C         138.9355  139.8889  164.8877 C.ar    1  UNL1        0.1378
      2 N         137.9771  140.2928  163.8069 N.ar    1  UNL1       -0.1770
      3 C         138.2703  141.4913  162.9539 C.ar    1  UNL1        0.3552
      4 O         137.3117  141.8953  161.8731 O.2     1  UNL1       -0.2440
      5 N         139.5219  142.2859  163.1817 N.ar    1  UNL1       -0.2573
      6 C         140.4805  141.8820  164.2625 C.ar    1  UNL1        0.0718
      7 C         141.7322  142.6765  164.4903 C.ar    1  UNL1        0.0291
      8 C         142.6906  142.2726  165.5711 C.ar    1  UNL1        0.0591
      9 CL        143.9424  143.0671  165.7989 Cl      1  UNL1       -0.0822
     10 C         142.3974  141.0740  166.4241 C.ar    1  UNL1        0.0116
     11 C         141.1458  140.2795  166.1963 C.ar    1  UNL1        0.0051
     12 C         140.1873  140.6834  165.1155 C.ar    1  UNL1        0.0480
     13 C         139.8152  143.4844  162.3287 C.ar    1  UNL1        0.0874
     14 C         139.3842  144.8488  162.7788 C.ar    1  UNL1        0.0208
     15 C         139.6774  146.0473  161.9258 C.ar    1  UNL1        0.0222
     16 C         140.4016  145.8815  160.6228 C.ar    1  UNL1        0.0990
     17 N         140.8326  144.5170  160.1726 N.ar    1  UNL1       -0.2408
     18 C         140.5394  143.3185  161.0256 C.ar    1  UNL1        0.1164
     19 N         138.6423  138.6904  165.7407 N.pl3   1  UNL1       -0.2913
     20 C         137.9330  138.8582  167.0516 C.3     1  UNL1        0.1136
     21 C         140.3804  137.1319  164.6003 C.3     1  UNL1        0.0232
     22 C         139.0584  137.3239  165.2826 C.3     1  UNL1        0.0923
@<TRIPOS>BOND
     1    21    22    1
     2    22    19    1
     3    19    20    1
     4    19     1    1
     5     1     2   ar
     6     2     3   ar
     7     3     4    2
     8     3     5   ar
     9     5    13    1
    10    13    14   ar
    11    14    15   ar
    12    15    16   ar
    13    16    17   ar
    14    17    18   ar
    15     5     6   ar
    16     6     7   ar
    17     7     8   ar
    18     8     9    1
    19     8    10   ar
    20    10    11   ar
    21    11    12   ar
    22    12     1   ar
    23    18    13   ar
    24    12     6   ar
