@<TRIPOS>MOLECULE
*****
 32 35 0 0 0
SMALL
GASTEIGER

@<TRIPOS>ATOM
      1 C         143.8915  137.8717  166.5650 C.3     1  UNL1        0.0177
      2 C         143.1019  139.1337  166.7490 C.3     1  UNL1        0.0623
      3 C         142.5815  139.5014  168.1070 C.3     1  UNL1        0.0384
      4 C         141.7919  140.7634  168.2911 C.2     1  UNL1       -0.0343
      5 C         141.5227  141.6577  167.1173 C.2     1  UNL1       -0.0106
      6 C         140.7332  142.9197  167.3015 C.2     1  UNL1       -0.0020
      7 C         140.2127  143.2874  168.6594 C.2     1  UNL1        0.0169
      8 C         140.4819  142.3931  169.8332 C.2     1  UNL1        0.0896
      9 N         140.0999  142.4940  171.2802 N.2     1  UNL1       -0.1520
     10 N         140.6534  141.2943  171.9904 N.2     1  UNL1       -0.1507
     11 C         141.3774  140.4520  170.9823 C.2     1  UNL1        0.1054
     12 C         141.2714  141.1311  169.6490 C.3     1  UNL1        0.1032
     13 C         142.0432  141.2900  165.7594 C.3     1  UNL1        0.1069
     14 N         142.8327  140.0280  165.5753 N.3     1  UNL1       -0.2632
     15 C         141.7740  142.1843  164.5856 C.ar    1  UNL1        0.0512
     16 C         140.6206  141.8952  163.6712 C.ar    1  UNL1        0.1399
     17 F         139.7363  140.7116  163.9307 F       1  UNL1       -0.2044
     18 C         140.3515  142.7895  162.4975 C.ar    1  UNL1        0.0295
     19 C         141.2358  143.9730  162.2381 C.ar    1  UNL1        0.0045
     20 C         142.3892  144.2622  163.1524 C.ar    1  UNL1        0.0295
     21 C         142.6583  143.3678  164.3262 C.ar    1  UNL1        0.1399
     22 F         143.8117  143.6570  165.2405 F       1  UNL1       -0.2044
     23 C         140.9667  144.8673  161.0643 C.2     1  UNL1        0.0013
     24 C         141.6374  144.6012  159.7493 C.2     1  UNL1        0.0151
     25 C         141.3682  145.4955  158.5755 C.2     1  UNL1        0.0729
     26 O         139.9722  145.6373  158.0453 O.co2   1  UNL1       -0.5446
     27 O         142.4951  146.2480  157.9321 O.co2   1  UNL1       -0.5446
     28 C         143.3532  139.6603  164.2173 C.3     1  UNL1        0.1398
     29 C         144.3693  140.5327  163.5420 C.3     1  UNL1        0.2786
     30 C         145.3856  141.4053  162.8667 C.3     1  UNL1        0.0737
     31 F         145.2688  140.4095  164.7361 F       1  UNL1       -0.2028
     32 F         143.4700  140.6560  162.3479 F       1  UNL1       -0.2028
@<TRIPOS>UNITY_ATOM_ATTR
26 1
charge -1
@<TRIPOS>BOND
     1     2     1    1
     2     2     3    1
     3     3     4    1
     4     4     5    2
     5     5     6    1
     6     6     7    2
     7     7     8    1
     8     8     9    2
     9     9    10    1
    10    10    11    2
    11    11    12    1
    12     5    13    1
    13    13    15    1
    14    15    16   ar
    15    16    17    1
    16    16    18   ar
    17    18    19   ar
    18    19    23    1
    19    23    24    2
    20    24    25    1
    21    25    26   ar
    22    25    27   ar
    23    19    20   ar
    24    20    21   ar
    25    21    22    1
    26    13    14    1
    27    14    28    1
    28    28    29    1
    29    29    30    1
    30    29    31    1
    31    29    32    1
    32    14     2    1
    33    12     4    1
    34    21    15   ar
    35    12     8    1
@<TRIPOS>MOLECULE
*****
 32 35 0 0 0
SMALL
GASTEIGER

@<TRIPOS>ATOM
      1 C         143.8786  137.8502  166.5711 C.3     1  UNL1        0.0177
      2 C         143.0939  139.1154  166.7551 C.3     1  UNL1        0.0623
      3 C         142.5781  139.4871  168.1136 C.3     1  UNL1        0.0384
      4 C         141.7934  140.7522  168.2977 C.2     1  UNL1       -0.0343
      5 C         141.5246  141.6456  167.1231 C.2     1  UNL1       -0.0106
      6 C         140.7400  142.9106  167.3071 C.2     1  UNL1       -0.0020
      7 C         140.2241  143.2824  168.6657 C.2     1  UNL1        0.0169
      8 C         140.4930  142.3890  169.8402 C.2     1  UNL1        0.0896
      9 N         140.1148  142.4935  171.2880 N.2     1  UNL1       -0.1520
     10 N         140.6658  141.2930  171.9988 N.2     1  UNL1       -0.1507
     11 C         141.3845  140.4466  170.9903 C.2     1  UNL1        0.1054
     12 C         141.2776  141.1239  169.6562 C.3     1  UNL1        0.1032
     13 C         142.0405  141.2738  165.7645 C.3     1  UNL1        0.1069
     14 N         142.8251  140.0088  165.5805 N.3     1  UNL1       -0.2632
     15 C         141.7717  142.1671  164.5899 C.ar    1  UNL1        0.0512
     16 C         142.6680  143.3387  164.3180 C.ar    1  UNL1        0.1399
     17 F         143.8333  143.6169  165.2206 F       1  UNL1       -0.2044
     18 C         142.3992  144.2321  163.1434 C.ar    1  UNL1        0.0295
     19 C         141.2339  143.9539  162.2408 C.ar    1  UNL1        0.0045
     20 C         140.3375  142.7824  162.5127 C.ar    1  UNL1        0.0295
     21 C         140.6064  141.8890  163.6873 C.ar    1  UNL1        0.1399
     22 F         139.7100  140.7174  163.9592 F       1  UNL1       -0.2044
     23 C         140.9650  144.8472  161.0662 C.2     1  UNL1        0.0013
     24 C         141.6338  144.5782  159.7508 C.2     1  UNL1        0.0151
     25 C         141.3649  145.4716  158.5762 C.2     1  UNL1        0.0729
     26 O         139.9697  145.6103  158.0432 O.co2   1  UNL1       -0.5446
     27 O         142.4914  146.2264  157.9347 O.co2   1  UNL1       -0.5446
     28 C         143.3410  139.6370  164.2219 C.3     1  UNL1        0.1398
     29 C         144.3450  140.5143  163.5350 C.3     1  UNL1        0.2786
     30 C         145.3491  141.3918  162.8480 C.3     1  UNL1        0.0737
     31 F         145.2580  140.3968  164.7193 F       1  UNL1       -0.2028
     32 F         143.4321  140.6319  162.3506 F       1  UNL1       -0.2028
@<TRIPOS>UNITY_ATOM_ATTR
26 1
charge -1
@<TRIPOS>BOND
     1     2     1    1
     2     2     3    1
     3     3     4    1
     4     4     5    2
     5     5     6    1
     6     6     7    2
     7     7     8    1
     8     8     9    2
     9     9    10    1
    10    10    11    2
    11    11    12    1
    12     5    13    1
    13    13    15    1
    14    15    16   ar
    15    16    17    1
    16    16    18   ar
    17    18    19   ar
    18    19    23    1
    19    23    24    2
    20    24    25    1
    21    25    26   ar
    22    25    27   ar
    23    19    20   ar
    24    20    21   ar
    25    21    22    1
    26    13    14    1
    27    14    28    1
    28    28    29    1
    29    29    30    1
    30    29    31    1
    31    29    32    1
    32    14     2    1
    33    12     4    1
    34    21    15   ar
    35    12     8    1
@<TRIPOS>MOLECULE
*****
 32 35 0 0 0
SMALL
GASTEIGER

@<TRIPOS>ATOM
      1 C         137.4705  138.3857  167.2603 C.3     1  UNL1        0.0177
      2 C         138.7480  139.1671  167.1733 C.3     1  UNL1        0.0623
      3 C         139.2605  139.9027  168.3759 C.3     1  UNL1        0.0384
      4 C         140.5380  140.6841  168.2890 C.2     1  UNL1       -0.0343
      5 C         141.3029  140.7299  166.9995 C.2     1  UNL1       -0.0106
      6 C         142.5803  141.5112  166.9126 C.2     1  UNL1       -0.0020
      7 C         143.0929  142.2468  168.1153 C.2     1  UNL1        0.0169
      8 C         142.3280  142.2010  169.4047 C.2     1  UNL1        0.0896
      9 N         142.5842  142.8212  170.7463 N.2     1  UNL1       -0.1520
     10 N         141.4651  142.4231  171.6623 N.2     1  UNL1       -0.1507
     11 C         140.5172  141.5568  170.8869 C.2     1  UNL1        0.1054
     12 C         141.0505  141.4196  169.4916 C.3     1  UNL1        0.1032
     13 C         140.7902  139.9943  165.7969 C.3     1  UNL1        0.1069
     14 N         139.5129  139.2130  165.8838 N.3     1  UNL1       -0.2632
     15 C         141.5551  140.0402  164.5074 C.ar    1  UNL1        0.0512
     16 C         141.3063  141.1475  163.5266 C.ar    1  UNL1        0.1399
     17 F         140.2924  142.2090  163.8354 F       1  UNL1       -0.2044
     18 C         142.0712  141.1934  162.2371 C.ar    1  UNL1        0.0295
     19 C         143.0850  140.1318  161.9284 C.ar    1  UNL1        0.0045
     20 C         143.3339  139.0245  162.9091 C.ar    1  UNL1        0.0295
     21 C         142.5690  138.9787  164.1987 C.ar    1  UNL1        0.1399
     22 F         142.8179  137.8713  165.1794 F       1  UNL1       -0.2044
     23 C         143.8499  140.1777  160.6389 C.2     1  UNL1        0.0013
     24 C         143.6330  141.3089  159.6781 C.2     1  UNL1        0.0151
     25 C         144.3979  141.3547  158.3886 C.2     1  UNL1        0.0729
     26 O         144.9011  142.6658  157.8612 O.co2   1  UNL1       -0.5446
     27 O         144.6596  140.0895  157.6265 O.co2   1  UNL1       -0.5446
     28 C         139.0002  138.4774  164.6812 C.3     1  UNL1        0.1398
     29 C         138.4568  139.2411  163.5102 C.3     1  UNL1        0.2786
     30 C         137.9134  140.0049  162.3392 C.3     1  UNL1        0.0737
     31 F         137.6605  140.1047  164.4430 F       1  UNL1       -0.2028
     32 F         139.2531  138.3776  162.5774 F       1  UNL1       -0.2028
@<TRIPOS>UNITY_ATOM_ATTR
26 1
charge -1
@<TRIPOS>BOND
     1     2     1    1
     2     2     3    1
     3     3     4    1
     4     4     5    2
     5     5     6    1
     6     6     7    2
     7     7     8    1
     8     8     9    2
     9     9    10    1
    10    10    11    2
    11    11    12    1
    12     5    13    1
    13    13    15    1
    14    15    16   ar
    15    16    17    1
    16    16    18   ar
    17    18    19   ar
    18    19    23    1
    19    23    24    2
    20    24    25    1
    21    25    26   ar
    22    25    27   ar
    23    19    20   ar
    24    20    21   ar
    25    21    22    1
    26    13    14    1
    27    14    28    1
    28    28    29    1
    29    29    30    1
    30    29    31    1
    31    29    32    1
    32    14     2    1
    33    12     4    1
    34    21    15   ar
    35    12     8    1
@<TRIPOS>MOLECULE
*****
 32 35 0 0 0
SMALL
GASTEIGER

@<TRIPOS>ATOM
      1 C         143.9666  137.6215  167.0121 C.3     1  UNL1        0.0177
      2 C         143.1437  138.8756  167.0084 C.3     1  UNL1        0.0623
      3 C         142.6235  139.4350  168.2993 C.3     1  UNL1        0.0384
      4 C         141.8006  140.6892  168.2958 C.2     1  UNL1       -0.0343
      5 C         141.4979  141.3839  167.0013 C.2     1  UNL1       -0.0106
      6 C         140.6750  142.6380  166.9977 C.2     1  UNL1       -0.0020
      7 C         140.1548  143.1974  168.2887 C.2     1  UNL1        0.0169
      8 C         140.4575  142.5027  169.5831 C.2     1  UNL1        0.0896
      9 N         140.0838  142.8160  171.0016 N.2     1  UNL1       -0.1520
     10 N         140.6757  141.7554  171.8819 N.2     1  UNL1       -0.1507
     11 C         141.4153  140.7867  171.0074 C.2     1  UNL1        0.1054
     12 C         141.2804  141.2486  169.5867 C.3     1  UNL1        0.1032
     13 C         142.0181  140.8244  165.7104 C.3     1  UNL1        0.1069
     14 N         142.8409  139.5704  165.7140 N.3     1  UNL1       -0.2632
     15 C         141.7154  141.5192  164.4159 C.ar    1  UNL1        0.0512
     16 C         142.6757  142.5317  163.8655 C.ar    1  UNL1        0.1399
     17 F         143.9387  142.8494  164.6098 F       1  UNL1       -0.2044
     18 C         142.3730  143.2264  162.5711 C.ar    1  UNL1        0.0295
     19 C         141.1099  142.9086  161.8269 C.ar    1  UNL1        0.0045
     20 C         140.1497  141.8962  162.3771 C.ar    1  UNL1        0.0295
     21 C         140.4524  141.2015  163.6717 C.ar    1  UNL1        0.1399
     22 F         139.4921  140.1890  164.2219 F       1  UNL1       -0.2044
     23 C         140.8072  143.6034  160.5324 C.2     1  UNL1        0.0013
     24 C         141.6327  144.7792  160.1014 C.2     1  UNL1        0.0151
     25 C         141.3300  145.4740  158.8069 C.2     1  UNL1        0.0729
     26 O         142.4387  146.1029  158.0161 O.co2   1  UNL1       -0.5446
     27 O         139.9186  145.5397  158.3032 O.co2   1  UNL1       -0.5446
     28 C         143.3612  139.0109  164.4230 C.3     1  UNL1        0.1398
     29 C         142.4213  138.3488  163.4597 C.3     1  UNL1        0.2786
     30 C         141.4813  137.6865  162.4964 C.3     1  UNL1        0.0737
     31 F         141.8862  137.4934  164.5697 F       1  UNL1       -0.2028
     32 F         142.9563  139.2040  162.3497 F       1  UNL1       -0.2028
@<TRIPOS>UNITY_ATOM_ATTR
26 1
charge -1
@<TRIPOS>BOND
     1     2     1    1
     2     2     3    1
     3     3     4    1
     4     4     5    2
     5     5     6    1
     6     6     7    2
     7     7     8    1
     8     8     9    2
     9     9    10    1
    10    10    11    2
    11    11    12    1
    12     5    13    1
    13    13    15    1
    14    15    16   ar
    15    16    17    1
    16    16    18   ar
    17    18    19   ar
    18    19    23    1
    19    23    24    2
    20    24    25    1
    21    25    26   ar
    22    25    27   ar
    23    19    20   ar
    24    20    21   ar
    25    21    22    1
    26    13    14    1
    27    14    28    1
    28    28    29    1
    29    29    30    1
    30    29    31    1
    31    29    32    1
    32    14     2    1
    33    12     4    1
    34    21    15   ar
    35    12     8    1
@<TRIPOS>MOLECULE
*****
 32 35 0 0 0
SMALL
GASTEIGER

@<TRIPOS>ATOM
      1 C         137.8204  137.7589  166.2694 C.3     1  UNL1        0.0177
      2 C         138.5715  139.0271  166.5477 C.3     1  UNL1        0.0623
      3 C         139.0021  139.3519  167.9474 C.3     1  UNL1        0.0384
      4 C         139.7532  140.6201  168.2259 C.2     1  UNL1       -0.0343
      5 C         140.0737  141.5635  167.1046 C.2     1  UNL1       -0.0106
      6 C         140.8248  142.8316  167.3830 C.2     1  UNL1       -0.0020
      7 C         141.2554  143.1564  168.7827 C.2     1  UNL1        0.0169
      8 C         140.9349  142.2130  169.9040 C.2     1  UNL1        0.0896
      9 N         141.2275  142.2653  171.3742 N.2     1  UNL1       -0.1520
     10 N         140.6572  141.0293  172.0045 N.2     1  UNL1       -0.1507
     11 C         140.0121  140.2132  170.9237 C.2     1  UNL1        0.1054
     12 C         140.1838  140.9448  169.6255 C.3     1  UNL1        0.1032
     13 C         139.6431  141.2386  165.7049 C.3     1  UNL1        0.1069
     14 N         138.8920  139.9705  165.4265 N.3     1  UNL1       -0.2632
     15 C         139.9637  142.1821  164.5837 C.ar    1  UNL1        0.0512
     16 C         141.2908  142.0988  163.8895 C.ar    1  UNL1        0.1399
     17 F         142.2974  141.0720  164.3166 F       1  UNL1       -0.2044
     18 C         141.6113  143.0422  162.7682 C.ar    1  UNL1        0.0295
     19 C         140.6046  144.0690  162.3412 C.ar    1  UNL1        0.0045
     20 C         139.2776  144.1524  163.0353 C.ar    1  UNL1        0.0295
     21 C         138.9571  143.2089  164.1566 C.ar    1  UNL1        0.1399
     22 F         137.6299  143.2922  164.8507 F       1  UNL1       -0.2044
     23 C         140.9252  145.0124  161.2199 C.2     1  UNL1        0.0013
     24 C         140.6288  144.6211  159.8026 C.2     1  UNL1        0.0151
     25 C         140.9493  145.5645  158.6813 C.2     1  UNL1        0.0729
     26 O         139.8439  146.1416  157.8475 O.co2   1  UNL1       -0.5446
     27 O         142.3753  145.9308  158.3939 O.co2   1  UNL1       -0.5446
     28 C         138.4614  139.6457  164.0268 C.3     1  UNL1        0.1398
     29 C         139.4851  139.2833  162.9922 C.3     1  UNL1        0.2786
     30 C         140.5089  138.9209  161.9574 C.3     1  UNL1        0.0737
     31 F         138.9331  140.3359  162.0772 F       1  UNL1       -0.2028
     32 F         140.0372  138.2306  163.9070 F       1  UNL1       -0.2028
@<TRIPOS>UNITY_ATOM_ATTR
26 1
charge -1
@<TRIPOS>BOND
     1     2     1    1
     2     2     3    1
     3     3     4    1
     4     4     5    2
     5     5     6    1
     6     6     7    2
     7     7     8    1
     8     8     9    2
     9     9    10    1
    10    10    11    2
    11    11    12    1
    12     5    13    1
    13    13    15    1
    14    15    16   ar
    15    16    17    1
    16    16    18   ar
    17    18    19   ar
    18    19    23    1
    19    23    24    2
    20    24    25    1
    21    25    26   ar
    22    25    27   ar
    23    19    20   ar
    24    20    21   ar
    25    21    22    1
    26    13    14    1
    27    14    28    1
    28    28    29    1
    29    29    30    1
    30    29    31    1
    31    29    32    1
    32    14     2    1
    33    12     4    1
    34    21    15   ar
    35    12     8    1
@<TRIPOS>MOLECULE
*****
 32 35 0 0 0
SMALL
GASTEIGER

@<TRIPOS>ATOM
      1 C         144.1175  138.4345  160.8949 C.3     1  UNL1        0.0177
      2 C         143.4488  139.7015  161.3394 C.3     1  UNL1        0.0623
      3 C         143.3137  140.8522  160.3868 C.3     1  UNL1        0.0384
      4 C         142.6450  142.1193  160.8313 C.2     1  UNL1       -0.0343
      5 C         142.1114  142.2355  162.2283 C.2     1  UNL1       -0.0106
      6 C         141.4427  143.5024  162.6727 C.2     1  UNL1       -0.0020
      7 C         141.3075  144.6533  161.7201 C.2     1  UNL1        0.0169
      8 C         141.8411  144.5370  160.3231 C.2     1  UNL1        0.0896
      9 N         141.8532  145.4966  159.1702 N.2     1  UNL1       -0.1520
     10 N         142.5294  144.8226  158.0133 N.2     1  UNL1       -0.1507
     11 C         142.9352  143.4465  158.4511 C.2     1  UNL1        0.1054
     12 C         142.5098  143.2700  159.8786 C.3     1  UNL1        0.1032
     13 C         142.2466  141.0847  163.1809 C.3     1  UNL1        0.1069
     14 N         142.9153  139.8178  162.7365 N.3     1  UNL1       -0.2632
     15 C         141.7130  141.2010  164.5780 C.ar    1  UNL1        0.0512
     16 C         140.2709  140.8975  164.8578 C.ar    1  UNL1        0.1399
     17 F         139.3624  140.4777  163.7406 F       1  UNL1       -0.2044
     18 C         139.7374  141.0138  166.2549 C.ar    1  UNL1        0.0295
     19 C         140.6460  141.4335  167.3722 C.ar    1  UNL1        0.0045
     20 C         142.0880  141.7370  167.0924 C.ar    1  UNL1        0.0295
     21 C         142.6216  141.6207  165.6953 C.ar    1  UNL1        0.1399
     22 F         144.0637  141.9242  165.4155 F       1  UNL1       -0.2044
     23 C         140.1124  141.5498  168.7692 C.2     1  UNL1        0.0013
     24 C         140.5730  142.6674  169.6574 C.2     1  UNL1        0.0151
     25 C         140.0395  142.7837  171.0544 C.2     1  UNL1        0.0729
     26 O         138.8804  143.6915  171.3415 O.co2   1  UNL1       -0.5446
     27 O         140.6651  141.9920  172.1645 O.co2   1  UNL1       -0.5446
     28 C         143.0504  138.6669  163.6891 C.3     1  UNL1        0.1398
     29 C         141.8330  137.9068  164.1246 C.3     1  UNL1        0.2786
     30 C         140.6153  137.1465  164.5600 C.3     1  UNL1        0.0737
     31 F         141.4395  137.7149  162.6898 F       1  UNL1       -0.2028
     32 F         142.2262  138.0985  165.5593 F       1  UNL1       -0.2028
@<TRIPOS>UNITY_ATOM_ATTR
26 1
charge -1
@<TRIPOS>BOND
     1     2     1    1
     2     2     3    1
     3     3     4    1
     4     4     5    2
     5     5     6    1
     6     6     7    2
     7     7     8    1
     8     8     9    2
     9     9    10    1
    10    10    11    2
    11    11    12    1
    12     5    13    1
    13    13    15    1
    14    15    16   ar
    15    16    17    1
    16    16    18   ar
    17    18    19   ar
    18    19    23    1
    19    23    24    2
    20    24    25    1
    21    25    26   ar
    22    25    27   ar
    23    19    20   ar
    24    20    21   ar
    25    21    22    1
    26    13    14    1
    27    14    28    1
    28    28    29    1
    29    29    30    1
    30    29    31    1
    31    29    32    1
    32    14     2    1
    33    12     4    1
    34    21    15   ar
    35    12     8    1
@<TRIPOS>MOLECULE
*****
 32 35 0 0 0
SMALL
GASTEIGER

@<TRIPOS>ATOM
      1 C         144.0470  137.7001  161.0392 C.3     1  UNL1        0.0177
      2 C         142.8201  138.5420  161.2295 C.3     1  UNL1        0.0623
      3 C         141.8210  138.6733  160.1185 C.3     1  UNL1        0.0384
      4 C         140.5941  139.5151  160.3087 C.2     1  UNL1       -0.0343
      5 C         140.3664  140.2256  161.6099 C.2     1  UNL1       -0.0106
      6 C         139.1397  141.0674  161.8002 C.2     1  UNL1       -0.0020
      7 C         138.1404  141.1988  160.6891 C.2     1  UNL1        0.0169
      8 C         138.3681  140.4883  159.3878 C.2     1  UNL1        0.0896
      9 N         137.5654  140.4304  158.1220 N.2     1  UNL1       -0.1520
     10 N         138.2962  139.5528  157.1495 N.2     1  UNL1       -0.1507
     11 C         139.5505  139.0683  157.8142 C.2     1  UNL1        0.1054
     12 C         139.5950  139.6464  159.1976 C.3     1  UNL1        0.1032
     13 C         141.3657  140.0943  162.7210 C.3     1  UNL1        0.1069
     14 N         142.5924  139.2525  162.5308 N.3     1  UNL1       -0.2632
     15 C         141.1379  140.8048  164.0223 C.ar    1  UNL1        0.0512
     16 C         141.6522  142.2007  164.2147 C.ar    1  UNL1        0.1399
     17 F         142.3942  142.8861  163.1058 F       1  UNL1       -0.2044
     18 C         141.4245  142.9112  165.5160 C.ar    1  UNL1        0.0295
     19 C         140.6825  142.2257  166.6249 C.ar    1  UNL1        0.0045
     20 C         140.1682  140.8299  166.4325 C.ar    1  UNL1        0.0295
     21 C         140.3960  140.1194  165.1312 C.ar    1  UNL1        0.1399
     22 F         139.8817  138.7235  164.9388 F       1  UNL1       -0.2044
     23 C         140.4547  142.9362  167.9262 C.2     1  UNL1        0.0013
     24 C         140.4637  142.1656  169.2130 C.2     1  UNL1        0.0151
     25 C         140.2360  142.8761  170.5143 C.2     1  UNL1        0.0729
     26 O         140.4587  142.1558  171.8111 O.co2   1  UNL1       -0.5446
     27 O         139.7856  144.3069  170.5187 O.co2   1  UNL1       -0.5446
     28 C         143.5916  139.1211  163.6419 C.3     1  UNL1        0.1398
     29 C         144.5711  140.2263  163.9042 C.3     1  UNL1        0.2786
     30 C         145.5507  141.3316  164.1667 C.3     1  UNL1        0.0737
     31 F         144.1592  140.2491  165.3464 F       1  UNL1       -0.2028
     32 F         144.9831  140.2037  162.4622 F       1  UNL1       -0.2028
@<TRIPOS>UNITY_ATOM_ATTR
26 1
charge -1
@<TRIPOS>BOND
     1     2     1    1
     2     2     3    1
     3     3     4    1
     4     4     5    2
     5     5     6    1
     6     6     7    2
     7     7     8    1
     8     8     9    2
     9     9    10    1
    10    10    11    2
    11    11    12    1
    12     5    13    1
    13    13    15    1
    14    15    16   ar
    15    16    17    1
    16    16    18   ar
    17    18    19   ar
    18    19    23    1
    19    23    24    2
    20    24    25    1
    21    25    26   ar
    22    25    27   ar
    23    19    20   ar
    24    20    21   ar
    25    21    22    1
    26    13    14    1
    27    14    28    1
    28    28    29    1
    29    29    30    1
    30    29    31    1
    31    29    32    1
    32    14     2    1
    33    12     4    1
    34    21    15   ar
    35    12     8    1
@<TRIPOS>MOLECULE
*****
 32 35 0 0 0
SMALL
GASTEIGER

@<TRIPOS>ATOM
      1 C         137.3472  139.5377  160.6558 C.3     1  UNL1        0.0177
      2 C         138.4697  140.4580  161.0341 C.3     1  UNL1        0.0623
      3 C         139.3348  141.0632  159.9685 C.3     1  UNL1        0.0384
      4 C         140.4573  141.9835  160.3466 C.2     1  UNL1       -0.0343
      5 C         140.7148  142.2986  161.7904 C.2     1  UNL1       -0.0106
      6 C         141.8372  143.2189  162.1685 C.2     1  UNL1       -0.0020
      7 C         142.7024  143.8241  161.1029 C.2     1  UNL1        0.0169
      8 C         142.4449  143.5089  159.6592 C.2     1  UNL1        0.0896
      9 N         143.1254  143.9525  158.3982 N.2     1  UNL1       -0.1520
     10 N         142.4234  143.3064  157.2408 N.2     1  UNL1       -0.1507
     11 C         141.3091  142.4635  157.7863 C.2     1  UNL1        0.1054
     12 C         141.3223  142.5886  159.2811 C.3     1  UNL1        0.1032
     13 C         139.8496  141.6934  162.8559 C.3     1  UNL1        0.1069
     14 N         138.7272  140.7732  162.4778 N.3     1  UNL1       -0.2632
     15 C         140.1071  142.0086  164.2997 C.ar    1  UNL1        0.0512
     16 C         139.4103  143.1666  164.9505 C.ar    1  UNL1        0.1399
     17 F         138.4559  144.0094  164.1575 F       1  UNL1       -0.2044
     18 C         139.6677  143.4817  166.3942 C.ar    1  UNL1        0.0295
     19 C         140.6222  142.6388  167.1872 C.ar    1  UNL1        0.0045
     20 C         141.3190  141.4809  166.5365 C.ar    1  UNL1        0.0295
     21 C         141.0615  141.1658  165.0926 C.ar    1  UNL1        0.1399
     22 F         141.7584  140.0078  164.4419 F       1  UNL1       -0.2044
     23 C         140.8796  142.9540  168.6309 C.2     1  UNL1        0.0013
     24 C         142.1907  142.5818  169.2576 C.2     1  UNL1        0.0151
     25 C         142.4481  142.8969  170.7013 C.2     1  UNL1        0.0729
     26 O         141.7071  142.1559  171.7744 O.co2   1  UNL1       -0.5446
     27 O         143.4467  143.9532  171.0718 O.co2   1  UNL1       -0.5446
     28 C         137.8620  140.1680  163.5434 C.3     1  UNL1        0.1398
     29 C         138.4175  139.1089  164.4487 C.3     1  UNL1        0.2786
     30 C         138.9731  138.0497  165.3540 C.3     1  UNL1        0.0737
     31 F         138.9746  138.3844  163.2593 F       1  UNL1       -0.2028
     32 F         137.8605  139.8334  165.6381 F       1  UNL1       -0.2028
@<TRIPOS>UNITY_ATOM_ATTR
26 1
charge -1
@<TRIPOS>BOND
     1     2     1    1
     2     2     3    1
     3     3     4    1
     4     4     5    2
     5     5     6    1
     6     6     7    2
     7     7     8    1
     8     8     9    2
     9     9    10    1
    10    10    11    2
    11    11    12    1
    12     5    13    1
    13    13    15    1
    14    15    16   ar
    15    16    17    1
    16    16    18   ar
    17    18    19   ar
    18    19    23    1
    19    23    24    2
    20    24    25    1
    21    25    26   ar
    22    25    27   ar
    23    19    20   ar
    24    20    21   ar
    25    21    22    1
    26    13    14    1
    27    14    28    1
    28    28    29    1
    29    29    30    1
    30    29    31    1
    31    29    32    1
    32    14     2    1
    33    12     4    1
    34    21    15   ar
    35    12     8    1
@<TRIPOS>MOLECULE
*****
 32 35 0 0 0
SMALL
GASTEIGER

@<TRIPOS>ATOM
      1 C         137.4348  139.2138  160.9437 C.3     1  UNL1        0.0177
      2 C         138.8780  139.5446  161.1841 C.3     1  UNL1        0.0623
      3 C         139.8628  139.4687  160.0553 C.3     1  UNL1        0.0384
      4 C         141.3061  139.7995  160.2955 C.2     1  UNL1       -0.0343
      5 C         141.7644  140.2062  161.6646 C.2     1  UNL1       -0.0106
      6 C         143.2075  140.5370  161.9049 C.2     1  UNL1       -0.0020
      7 C         144.1925  140.4611  160.7761 C.2     1  UNL1        0.0169
      8 C         143.7341  140.0544  159.4070 C.2     1  UNL1        0.0896
      9 N         144.4692  139.8917  158.1096 N.2     1  UNL1       -0.1520
     10 N         143.4803  139.4603  157.0675 N.2     1  UNL1       -0.1507
     11 C         142.1341  139.3564  157.7208 C.2     1  UNL1        0.1054
     12 C         142.2909  139.7236  159.1667 C.3     1  UNL1        0.1032
     13 C         140.7795  140.2821  162.7935 C.3     1  UNL1        0.1069
     14 N         139.3364  139.9514  162.5532 N.3     1  UNL1       -0.2632
     15 C         141.2378  140.6888  164.1626 C.ar    1  UNL1        0.0512
     16 C         141.1486  142.1246  164.5878 C.ar    1  UNL1        0.1399
     17 F         140.6009  143.1536  163.6438 F       1  UNL1       -0.2044
     18 C         141.6069  142.5313  165.9569 C.ar    1  UNL1        0.0295
     19 C         142.1546  141.5022  166.9009 C.ar    1  UNL1        0.0045
     20 C         142.2439  140.0665  166.4758 C.ar    1  UNL1        0.0295
     21 C         141.7855  139.6598  165.1066 C.ar    1  UNL1        0.1399
     22 F         141.8747  138.2241  164.6815 F       1  UNL1       -0.2044
     23 C         142.6130  141.9089  168.2700 C.2     1  UNL1        0.0013
     24 C         141.6157  142.3858  169.2839 C.2     1  UNL1        0.0151
     25 C         142.0740  142.7925  170.6530 C.2     1  UNL1        0.0729
     26 O         143.1588  143.8169  170.8072 O.co2   1  UNL1       -0.5446
     27 O         141.4475  142.1747  171.8679 O.co2   1  UNL1       -0.5446
     28 C         138.3514  140.0272  163.6821 C.3     1  UNL1        0.1398
     29 C         138.4210  139.0365  164.8060 C.3     1  UNL1        0.2786
     30 C         138.4906  138.0457  165.9301 C.3     1  UNL1        0.0737
     31 F         138.3390  140.1575  165.7993 F       1  UNL1       -0.2028
     32 F         138.5029  137.9154  163.8128 F       1  UNL1       -0.2028
@<TRIPOS>UNITY_ATOM_ATTR
26 1
charge -1
@<TRIPOS>BOND
     1     2     1    1
     2     2     3    1
     3     3     4    1
     4     4     5    2
     5     5     6    1
     6     6     7    2
     7     7     8    1
     8     8     9    2
     9     9    10    1
    10    10    11    2
    11    11    12    1
    12     5    13    1
    13    13    15    1
    14    15    16   ar
    15    16    17    1
    16    16    18   ar
    17    18    19   ar
    18    19    23    1
    19    23    24    2
    20    24    25    1
    21    25    26   ar
    22    25    27   ar
    23    19    20   ar
    24    20    21   ar
    25    21    22    1
    26    13    14    1
    27    14    28    1
    28    28    29    1
    29    29    30    1
    30    29    31    1
    31    29    32    1
    32    14     2    1
    33    12     4    1
    34    21    15   ar
    35    12     8    1
