@<TRIPOS>MOLECULE
*****
 23 25 0 0 0
SMALL
GASTEIGER

@<TRIPOS>ATOM
      1 P         141.2470  141.2301  164.3212 P.3     1  UNL1        0.2276
      2 O         140.0599  141.9856  163.8017 O.2     1  UNL1       -0.2903
      3 C         140.3400  140.1383  164.8062 C.ar    1  UNL1        0.0498
      4 C         139.3330  140.4220  165.8812 C.ar    1  UNL1        0.0046
      5 C         138.4260  139.3302  166.3662 C.ar    1  UNL1        0.0002
      6 C         138.5260  137.9547  165.7762 C.ar    1  UNL1        0.0000
      7 C         139.5329  137.6710  164.7013 C.ar    1  UNL1        0.0002
      8 C         140.4399  138.7628  164.2163 C.ar    1  UNL1        0.0046
      9 C         142.1540  142.3219  163.8361 C.ar    1  UNL1        0.0498
     10 C         142.5199  142.4031  162.3837 C.ar    1  UNL1        0.0046
     11 C         143.4270  143.4950  161.8987 C.ar    1  UNL1        0.0002
     12 C         143.9680  144.5056  162.8660 C.ar    1  UNL1        0.0000
     13 C         143.6021  144.4244  164.3185 C.ar    1  UNL1        0.0002
     14 C         142.6951  143.3326  164.8035 C.ar    1  UNL1        0.0046
     15 N         142.4342  140.4747  164.8406 N.pl3   1  UNL1       -0.2442
     16 C         142.6130  140.2818  166.3174 C.ar    1  UNL1        0.1791
     17 C         142.5785  141.3616  167.3581 C.ar    1  UNL1        0.0814
     18 C         142.8018  140.7224  168.6965 C.ar    1  UNL1        0.2152
     19 O         142.9743  139.2477  168.4831 O.2     1  UNL1       -0.3489
     20 N         142.8576  138.9754  167.0127 N.ar    1  UNL1       -0.0614
     21 C         143.4427  139.9120  163.8832 C.3     1  UNL1        0.0989
     22 C         145.6881  141.2186  163.9189 C.3     1  UNL1        0.0018
     23 C         144.9048  139.9734  164.2123 C.3     1  UNL1        0.0219
@<TRIPOS>BOND
     1    22    23    1
     2    23    21    1
     3    21    15    1
     4    15    16    1
     5    16    17   ar
     6    17    18   ar
     7    18    19   ar
     8    19    20   ar
     9    15     1    1
    10     1     2    2
    11     1     3    1
    12     3     4   ar
    13     4     5   ar
    14     5     6   ar
    15     6     7   ar
    16     7     8   ar
    17     1     9    1
    18     9    10   ar
    19    10    11   ar
    20    11    12   ar
    21    12    13   ar
    22    13    14   ar
    23    20    16   ar
    24     8     3   ar
    25    14     9   ar
@<TRIPOS>MOLECULE
*****
 23 25 0 0 0
SMALL
GASTEIGER

@<TRIPOS>ATOM
      1 P         141.2656  141.2532  164.3041 P.3     1  UNL1        0.2276
      2 O         140.0748  141.9986  163.7786 O.2     1  UNL1       -0.2903
      3 C         142.1667  142.3482  163.8149 C.ar    1  UNL1        0.0498
      4 C         142.5408  142.4197  162.3641 C.ar    1  UNL1        0.0046
      5 C         143.4419  143.5146  161.8751 C.ar    1  UNL1        0.0002
      6 C         143.9688  144.5380  162.8368 C.ar    1  UNL1        0.0000
      7 C         143.5948  144.4665  164.2877 C.ar    1  UNL1        0.0002
      8 C         142.6937  143.3716  164.7767 C.ar    1  UNL1        0.0046
      9 C         140.3646  140.1584  164.7932 C.ar    1  UNL1        0.0498
     10 C         139.3554  140.4408  165.8663 C.ar    1  UNL1        0.0046
     11 C         138.4542  139.3458  166.3554 C.ar    1  UNL1        0.0002
     12 C         138.5624  137.9685  165.7713 C.ar    1  UNL1        0.0000
     13 C         139.5716  137.6861  164.6981 C.ar    1  UNL1        0.0002
     14 C         140.4726  138.7809  164.2090 C.ar    1  UNL1        0.0046
     15 N         142.4565  140.5079  164.8295 N.pl3   1  UNL1       -0.2442
     16 C         142.6293  140.3163  166.3072 C.ar    1  UNL1        0.1791
     17 C         142.5808  141.3957  167.3478 C.ar    1  UNL1        0.0814
     18 C         142.8024  140.7582  168.6873 C.ar    1  UNL1        0.2152
     19 O         142.9880  139.2850  168.4747 O.2     1  UNL1       -0.3489
     20 N         142.8810  139.0119  167.0037 N.ar    1  UNL1       -0.0614
     21 C         143.4747  139.9539  163.8773 C.3     1  UNL1        0.0989
     22 C         145.7063  141.2843  163.8969 C.3     1  UNL1        0.0018
     23 C         144.9351  140.0362  164.2096 C.3     1  UNL1        0.0219
@<TRIPOS>BOND
     1    22    23    1
     2    23    21    1
     3    21    15    1
     4    15    16    1
     5    16    17   ar
     6    17    18   ar
     7    18    19   ar
     8    19    20   ar
     9    15     1    1
    10     1     2    2
    11     1     3    1
    12     3     4   ar
    13     4     5   ar
    14     5     6   ar
    15     6     7   ar
    16     7     8   ar
    17     1     9    1
    18     9    10   ar
    19    10    11   ar
    20    11    12   ar
    21    12    13   ar
    22    13    14   ar
    23    20    16   ar
    24     8     3   ar
    25    14     9   ar
@<TRIPOS>MOLECULE
*****
 23 25 0 0 0
SMALL
GASTEIGER

@<TRIPOS>ATOM
      1 P         140.2976  142.2885  165.9965 P.3     1  UNL1        0.2276
      2 O         140.0913  143.7691  165.8741 O.2     1  UNL1       -0.2903
      3 C         141.0234  142.4969  167.2927 C.ar    1  UNL1        0.0498
      4 C         142.4715  142.1239  167.4097 C.ar    1  UNL1        0.0046
      5 C         143.1972  142.3323  168.7058 C.ar    1  UNL1        0.0002
      6 C         142.4747  142.9136  169.8849 C.ar    1  UNL1        0.0000
      7 C         141.0266  143.2865  169.7678 C.ar    1  UNL1        0.0002
      8 C         140.3009  143.0782  168.4717 C.ar    1  UNL1        0.0046
      9 C         139.5719  142.0802  164.7004 C.ar    1  UNL1        0.0498
     10 C         140.3151  141.5825  163.4963 C.ar    1  UNL1        0.0046
     11 C         139.5893  141.3742  162.2001 C.ar    1  UNL1        0.0002
     12 C         138.1203  141.6636  162.1082 C.ar    1  UNL1        0.0000
     13 C         137.3771  142.1612  163.3124 C.ar    1  UNL1        0.0002
     14 C         138.1029  142.3695  164.6085 C.ar    1  UNL1        0.0046
     15 N         140.5039  140.8078  166.1190 N.pl3   1  UNL1       -0.2442
     16 C         139.4319  139.9484  166.7208 C.ar    1  UNL1        0.1791
     17 C         138.4631  139.0884  165.9644 C.ar    1  UNL1        0.0814
     18 C         137.5730  138.4066  166.9608 C.ar    1  UNL1        0.2152
     19 O         137.9915  138.8453  168.3328 O.2     1  UNL1       -0.3489
     20 N         139.1404  139.7981  168.1844 N.ar    1  UNL1       -0.0614
     21 C         141.7823  140.1865  165.6396 C.3     1  UNL1        0.0989
     22 C         143.4730  138.3257  166.2946 C.3     1  UNL1        0.0018
     23 C         142.0770  138.7475  165.9435 C.3     1  UNL1        0.0219
@<TRIPOS>BOND
     1    22    23    1
     2    23    21    1
     3    21    15    1
     4    15    16    1
     5    16    17   ar
     6    17    18   ar
     7    18    19   ar
     8    19    20   ar
     9    15     1    1
    10     1     2    2
    11     1     3    1
    12     3     4   ar
    13     4     5   ar
    14     5     6   ar
    15     6     7   ar
    16     7     8   ar
    17     1     9    1
    18     9    10   ar
    19    10    11   ar
    20    11    12   ar
    21    12    13   ar
    22    13    14   ar
    23    20    16   ar
    24     8     3   ar
    25    14     9   ar
@<TRIPOS>MOLECULE
*****
 23 25 0 0 0
SMALL
GASTEIGER

@<TRIPOS>ATOM
      1 P         140.3258  142.2882  165.8907 P.3     1  UNL1        0.2276
      2 O         140.1520  143.7743  165.7843 O.2     1  UNL1       -0.2903
      3 C         139.5822  142.1089  164.6003 C.ar    1  UNL1        0.0498
      4 C         138.1096  142.3874  164.5383 C.ar    1  UNL1        0.0046
      5 C         137.3661  142.2081  163.2480 C.ar    1  UNL1        0.0002
      6 C         138.0952  141.7504  162.0196 C.ar    1  UNL1        0.0000
      7 C         139.5678  141.4719  162.0816 C.ar    1  UNL1        0.0002
      8 C         140.3113  141.6512  163.3719 C.ar    1  UNL1        0.0046
      9 C         141.0693  142.4675  167.1810 C.ar    1  UNL1        0.0498
     10 C         140.3525  142.9806  168.3946 C.ar    1  UNL1        0.0046
     11 C         141.0962  143.1599  169.6850 C.ar    1  UNL1        0.0002
     12 C         142.5565  142.8261  169.7616 C.ar    1  UNL1        0.0000
     13 C         143.2733  142.3131  168.5480 C.ar    1  UNL1        0.0002
     14 C         142.5298  142.1338  167.2577 C.ar    1  UNL1        0.0046
     15 N         140.4996  140.8021  165.9970 N.pl3   1  UNL1       -0.2442
     16 C         139.4322  139.9662  166.6389 C.ar    1  UNL1        0.1791
     17 C         138.4360  139.1048  165.9208 C.ar    1  UNL1        0.0814
     18 C         137.5618  138.4512  166.9496 C.ar    1  UNL1        0.2152
     19 O         138.0176  138.9087  168.3034 O.2     1  UNL1       -0.3489
     20 N         139.1736  139.8450  168.1114 N.ar    1  UNL1       -0.0614
     21 C         141.7408  140.1519  165.4615 C.3     1  UNL1        0.0989
     22 C         143.3895  138.5213  166.6333 C.3     1  UNL1        0.0018
     23 C         142.1065  138.7632  165.8947 C.3     1  UNL1        0.0219
@<TRIPOS>BOND
     1    22    23    1
     2    23    21    1
     3    21    15    1
     4    15    16    1
     5    16    17   ar
     6    17    18   ar
     7    18    19   ar
     8    19    20   ar
     9    15     1    1
    10     1     2    2
    11     1     3    1
    12     3     4   ar
    13     4     5   ar
    14     5     6   ar
    15     6     7   ar
    16     7     8   ar
    17     1     9    1
    18     9    10   ar
    19    10    11   ar
    20    11    12   ar
    21    12    13   ar
    22    13    14   ar
    23    20    16   ar
    24     8     3   ar
    25    14     9   ar
@<TRIPOS>MOLECULE
*****
 23 25 0 0 0
SMALL
GASTEIGER

@<TRIPOS>ATOM
      1 P         142.1477  139.6657  166.1145 P.3     1  UNL1        0.2276
      2 O         143.4656  138.9494  166.1114 O.2     1  UNL1       -0.2903
      3 C         141.8026  139.0365  164.7972 C.ar    1  UNL1        0.0498
      4 C         141.8589  139.8513  163.5392 C.ar    1  UNL1        0.0046
      5 C         141.5139  139.2220  162.2220 C.ar    1  UNL1        0.0002
      6 C         141.1126  137.7779  162.1629 C.ar    1  UNL1        0.0000
      7 C         141.0563  136.9631  163.4210 C.ar    1  UNL1        0.0002
      8 C         141.4014  137.5923  164.7382 C.ar    1  UNL1        0.0046
      9 C         142.4927  140.2949  167.4317 C.ar    1  UNL1        0.0498
     10 C         142.5419  139.4555  168.6738 C.ar    1  UNL1        0.0046
     11 C         142.8870  140.0848  169.9911 C.ar    1  UNL1        0.0002
     12 C         143.1829  141.5534  170.0661 C.ar    1  UNL1        0.0000
     13 C         143.1337  142.3928  168.8239 C.ar    1  UNL1        0.0002
     14 C         142.7886  141.7636  167.5067 C.ar    1  UNL1        0.0046
     15 N         140.8298  140.3820  166.1176 N.pl3   1  UNL1       -0.2442
     16 C         139.6303  139.7430  166.7524 C.ar    1  UNL1        0.1791
     17 C         138.5687  138.9583  166.0401 C.ar    1  UNL1        0.0814
     18 C         137.5643  138.5069  167.0584 C.ar    1  UNL1        0.2152
     19 O         138.0050  139.0125  168.4001 O.2     1  UNL1       -0.3489
     20 N         139.2819  139.7764  168.2110 N.ar    1  UNL1       -0.0614
     21 C         140.7113  141.7373  165.4858 C.3     1  UNL1        0.0989
     22 C         139.4143  143.9885  165.4703 C.3     1  UNL1        0.0018
     23 C         139.4172  142.4915  165.5658 C.3     1  UNL1        0.0219
@<TRIPOS>BOND
     1    22    23    1
     2    23    21    1
     3    21    15    1
     4    15    16    1
     5    16    17   ar
     6    17    18   ar
     7    18    19   ar
     8    19    20   ar
     9    15     1    1
    10     1     2    2
    11     1     3    1
    12     3     4   ar
    13     4     5   ar
    14     5     6   ar
    15     6     7   ar
    16     7     8   ar
    17     1     9    1
    18     9    10   ar
    19    10    11   ar
    20    11    12   ar
    21    12    13   ar
    22    13    14   ar
    23    20    16   ar
    24     8     3   ar
    25    14     9   ar
@<TRIPOS>MOLECULE
*****
 23 25 0 0 0
SMALL
GASTEIGER

@<TRIPOS>ATOM
      1 P         141.7004  140.1400  165.4117 P.3     1  UNL1        0.2276
      2 O         142.4104  139.5118  166.5741 O.2     1  UNL1       -0.2903
      3 C         140.4131  139.5133  165.8594 C.ar    1  UNL1        0.0498
      4 C         139.7247  140.0144  167.0943 C.ar    1  UNL1        0.0046
      5 C         138.4375  139.3877  167.5419 C.ar    1  UNL1        0.0002
      6 C         137.8387  138.2600  166.7546 C.ar    1  UNL1        0.0000
      7 C         138.5272  137.7590  165.5197 C.ar    1  UNL1        0.0002
      8 C         139.8144  138.3856  165.0721 C.ar    1  UNL1        0.0046
      9 C         142.9876  140.7665  164.9641 C.ar    1  UNL1        0.0498
     10 C         143.2685  142.2069  165.2747 C.ar    1  UNL1        0.0046
     11 C         144.5558  142.8335  164.8270 C.ar    1  UNL1        0.0002
     12 C         145.5622  142.0197  164.0688 C.ar    1  UNL1        0.0000
     13 C         145.2813  140.5793  163.7582 C.ar    1  UNL1        0.0002
     14 C         143.9941  139.9528  164.2058 C.ar    1  UNL1        0.0046
     15 N         140.9904  140.7681  164.2493 N.pl3   1  UNL1       -0.2442
     16 C         139.9541  141.8264  164.4864 C.ar    1  UNL1        0.1791
     17 C         138.5278  141.7831  164.0237 C.ar    1  UNL1        0.0814
     18 C         137.8545  143.0436  164.4791 C.ar    1  UNL1        0.2152
     19 O         138.8644  143.8660  165.2232 O.2     1  UNL1       -0.3489
     20 N         140.1621  143.1137  165.2276 N.ar    1  UNL1       -0.0614
     21 C         141.3167  140.3381  162.8498 C.3     1  UNL1        0.0989
     22 C         142.4366  142.3629  161.6682 C.3     1  UNL1        0.0018
     23 C         141.3351  141.3472  161.7401 C.3     1  UNL1        0.0219
@<TRIPOS>BOND
     1    22    23    1
     2    23    21    1
     3    21    15    1
     4    15    16    1
     5    16    17   ar
     6    17    18   ar
     7    18    19   ar
     8    19    20   ar
     9    15     1    1
    10     1     2    2
    11     1     3    1
    12     3     4   ar
    13     4     5   ar
    14     5     6   ar
    15     6     7   ar
    16     7     8   ar
    17     1     9    1
    18     9    10   ar
    19    10    11   ar
    20    11    12   ar
    21    12    13   ar
    22    13    14   ar
    23    20    16   ar
    24     8     3   ar
    25    14     9   ar
@<TRIPOS>MOLECULE
*****
 23 25 0 0 0
SMALL
GASTEIGER

@<TRIPOS>ATOM
      1 P         141.6843  140.1351  165.4148 P.3     1  UNL1        0.2276
      2 O         142.3931  139.5117  166.5806 O.2     1  UNL1       -0.2903
      3 C         142.9727  140.7578  164.9647 C.ar    1  UNL1        0.0498
      4 C         143.2582  142.1975  165.2741 C.ar    1  UNL1        0.0046
      5 C         144.5465  142.8201  164.8239 C.ar    1  UNL1        0.0002
      6 C         145.5492  142.0030  164.0643 C.ar    1  UNL1        0.0000
      7 C         145.2636  140.5634  163.7549 C.ar    1  UNL1        0.0002
      8 C         143.9754  139.9407  164.2051 C.ar    1  UNL1        0.0046
      9 C         140.3961  139.5124  165.8650 C.ar    1  UNL1        0.0498
     10 C         139.7875  138.3928  165.0738 C.ar    1  UNL1        0.0046
     11 C         138.4992  137.7702  165.5240 C.ar    1  UNL1        0.0002
     12 C         137.8196  138.2671  166.7654 C.ar    1  UNL1        0.0000
     13 C         138.4282  139.3867  167.5567 C.ar    1  UNL1        0.0002
     14 C         139.7165  140.0093  167.1065 C.ar    1  UNL1        0.0046
     15 N         140.9756  140.7586  164.2491 N.pl3   1  UNL1       -0.2442
     16 C         139.9371  141.8158  164.4808 C.ar    1  UNL1        0.1791
     17 C         140.1731  143.1641  165.0944 C.ar    1  UNL1        0.0814
     18 C         138.8621  143.8919  165.1324 C.ar    1  UNL1        0.2152
     19 O         137.8158  142.9934  164.5425 O.2     1  UNL1       -0.3489
     20 N         138.4802  141.7104  164.1398 N.ar    1  UNL1       -0.0614
     21 C         141.3054  140.3248  162.8515 C.3     1  UNL1        0.0989
     22 C         142.3774  142.3615  161.6462 C.3     1  UNL1        0.0018
     23 C         141.2964  141.3252  161.7339 C.3     1  UNL1        0.0219
@<TRIPOS>BOND
     1    22    23    1
     2    23    21    1
     3    21    15    1
     4    15    16    1
     5    16    17   ar
     6    17    18   ar
     7    18    19   ar
     8    19    20   ar
     9    15     1    1
    10     1     2    2
    11     1     3    1
    12     3     4   ar
    13     4     5   ar
    14     5     6   ar
    15     6     7   ar
    16     7     8   ar
    17     1     9    1
    18     9    10   ar
    19    10    11   ar
    20    11    12   ar
    21    12    13   ar
    22    13    14   ar
    23    20    16   ar
    24     8     3   ar
    25    14     9   ar
@<TRIPOS>MOLECULE
*****
 23 25 0 0 0
SMALL
GASTEIGER

@<TRIPOS>ATOM
      1 P         141.2747  140.7516  164.8771 P.3     1  UNL1        0.2276
      2 O         142.3083  139.6918  165.1185 O.2     1  UNL1       -0.2903
      3 C         142.3422  141.6786  164.3760 C.ar    1  UNL1        0.0498
      4 C         142.5662  141.8371  162.9014 C.ar    1  UNL1        0.0046
      5 C         143.6337  142.7640  162.4003 C.ar    1  UNL1        0.0002
      6 C         144.4773  143.5325  163.3739 C.ar    1  UNL1        0.0000
      7 C         144.2533  143.3740  164.8486 C.ar    1  UNL1        0.0002
      8 C         143.1858  142.4470  165.3496 C.ar    1  UNL1        0.0046
      9 C         140.2072  139.8246  165.3782 C.ar    1  UNL1        0.0498
     10 C         139.8784  138.5764  164.6140 C.ar    1  UNL1        0.0046
     11 C         138.8109  137.6494  165.1152 C.ar    1  UNL1        0.0002
     12 C         138.0721  137.9706  166.3805 C.ar    1  UNL1        0.0000
     13 C         138.4009  139.2188  167.1447 C.ar    1  UNL1        0.0002
     14 C         139.4684  140.1458  166.6436 C.ar    1  UNL1        0.0046
     15 N         140.2410  141.8114  164.6358 N.pl3   1  UNL1       -0.2442
     16 C         139.1728  141.5963  163.6049 C.ar    1  UNL1        0.1791
     17 C         139.3969  141.2869  162.1543 C.ar    1  UNL1        0.0814
     18 C         138.0555  141.1522  161.4967 C.ar    1  UNL1        0.2152
     19 O         137.0025  141.3783  162.5407 O.2     1  UNL1       -0.3489
     20 N         137.6930  141.6528  163.8436 N.ar    1  UNL1       -0.0614
     21 C         140.2756  143.0864  165.4252 C.3     1  UNL1        0.0989
     22 C         140.8189  145.0059  163.7607 C.3     1  UNL1        0.0018
     23 C         139.9017  144.3837  164.7716 C.3     1  UNL1        0.0219
@<TRIPOS>BOND
     1    22    23    1
     2    23    21    1
     3    21    15    1
     4    15    16    1
     5    16    17   ar
     6    17    18   ar
     7    18    19   ar
     8    19    20   ar
     9    15     1    1
    10     1     2    2
    11     1     3    1
    12     3     4   ar
    13     4     5   ar
    14     5     6   ar
    15     6     7   ar
    16     7     8   ar
    17     1     9    1
    18     9    10   ar
    19    10    11   ar
    20    11    12   ar
    21    12    13   ar
    22    13    14   ar
    23    20    16   ar
    24     8     3   ar
    25    14     9   ar
@<TRIPOS>MOLECULE
*****
 23 25 0 0 0
SMALL
GASTEIGER

@<TRIPOS>ATOM
      1 P         141.2879  140.7767  164.8510 P.3     1  UNL1        0.2276
      2 O         142.3326  139.7257  165.0834 O.2     1  UNL1       -0.2903
      3 C         140.2251  139.8209  165.3062 C.ar    1  UNL1        0.0498
      4 C         139.4749  140.0840  166.5782 C.ar    1  UNL1        0.0046
      5 C         138.4122  139.1282  167.0333 C.ar    1  UNL1        0.0002
      6 C         138.0998  137.9095  166.2166 C.ar    1  UNL1        0.0000
      7 C         138.8500  137.6465  164.9446 C.ar    1  UNL1        0.0002
      8 C         139.9127  138.6022  164.4895 C.ar    1  UNL1        0.0046
      9 C         142.3506  141.7323  164.3958 C.ar    1  UNL1        0.0498
     10 C         142.5923  141.9428  162.9304 C.ar    1  UNL1        0.0046
     11 C         143.6551  142.8985  162.4752 C.ar    1  UNL1        0.0002
     12 C         144.4762  143.6437  163.4854 C.ar    1  UNL1        0.0000
     13 C         144.2345  143.4332  164.9507 C.ar    1  UNL1        0.0002
     14 C         143.1718  142.4776  165.4060 C.ar    1  UNL1        0.0046
     15 N         140.2433  141.8277  164.6186 N.pl3   1  UNL1       -0.2442
     16 C         139.1840  141.6151  163.5780 C.ar    1  UNL1        0.1791
     17 C         139.4205  141.3394  162.1226 C.ar    1  UNL1        0.0814
     18 C         138.0850  141.1948  161.4553 C.ar    1  UNL1        0.2152
     19 O         137.0231  141.3812  162.4982 O.2     1  UNL1       -0.3489
     20 N         137.7023  141.6409  163.8100 N.ar    1  UNL1       -0.0614
     21 C         140.2578  143.0913  165.4267 C.3     1  UNL1        0.0989
     22 C         140.8192  145.0788  163.8504 C.3     1  UNL1        0.0018
     23 C         139.8718  144.3934  164.7899 C.3     1  UNL1        0.0219
@<TRIPOS>BOND
     1    22    23    1
     2    23    21    1
     3    21    15    1
     4    15    16    1
     5    16    17   ar
     6    17    18   ar
     7    18    19   ar
     8    19    20   ar
     9    15     1    1
    10     1     2    2
    11     1     3    1
    12     3     4   ar
    13     4     5   ar
    14     5     6   ar
    15     6     7   ar
    16     7     8   ar
    17     1     9    1
    18     9    10   ar
    19    10    11   ar
    20    11    12   ar
    21    12    13   ar
    22    13    14   ar
    23    20    16   ar
    24     8     3   ar
    25    14     9   ar
