@<TRIPOS>MOLECULE
*****
 31 34 0 0 0
SMALL
GASTEIGER

@<TRIPOS>ATOM
      1 C         143.6476  139.0341  161.8380 C.ar    1  UNL1       -0.0176
      2 C         142.6238  138.1108  162.4292 C.ar    1  UNL1       -0.0039
      3 C         142.4542  138.0335  163.9176 C.ar    1  UNL1       -0.0003
      4 C         143.3084  138.8794  164.8147 C.ar    1  UNL1       -0.0003
      5 C         144.3321  139.8027  164.2235 C.ar    1  UNL1       -0.0003
      6 C         144.5017  139.8799  162.7352 C.ar    1  UNL1       -0.0039
      7 C         143.1387  138.8021  166.3031 C.2     1  UNL1       -0.0032
      8 C         142.8273  140.0419  167.0880 C.2     1  UNL1       -0.0088
      9 C         142.6577  139.9644  168.5763 C.3     1  UNL1        0.0993
     10 N         141.5028  140.6575  169.2365 N.3     1  UNL1       -0.2597
     11 C         141.6185  142.1011  169.6274 C.3     1  UNL1        0.0942
     12 C         140.4636  142.7942  170.2876 C.3     1  UNL1        0.1068
     13 N         139.1930  142.0437  170.5570 N.am    1  UNL1       -0.3018
     14 C         139.0774  140.6001  170.1662 C.2     1  UNL1        0.2389
     15 O         137.8069  139.8496  170.4356 O.2     1  UNL1       -0.2736
     16 C         140.2323  139.9071  169.5060 C.3     1  UNL1        0.1587
     17 H         138.4350  142.4986  170.9904 H       1  UNL1        0.1495
     18 C         143.8172  139.1114  160.3496 C.3     1  UNL1        0.0570
     19 C         141.4357  139.9427  159.4651 C.ar    1  UNL1        0.0782
     20 N         140.4784  139.4835  158.4055 N.ar    1  UNL1       -0.1687
     21 N         141.0696  138.2773  157.7380 N.ar    1  UNL1       -0.2168
     22 C         140.5744  137.4026  156.6246 C.ar    1  UNL1        0.0636
     23 C         139.2518  137.6888  155.9776 C.3     1  UNL1        0.0522
     24 C         141.4020  136.2418  156.1582 C.ar    1  UNL1        0.0296
     25 C         142.7247  135.9556  156.8051 C.ar    1  UNL1        0.0622
     26 C         143.5522  134.7947  156.3387 C.3     1  UNL1        0.0522
     27 N         143.2198  136.8303  157.9185 N.ar    1  UNL1       -0.2311
     28 C         142.3923  137.9911  158.3850 C.ar    1  UNL1        0.1604
     29 C         142.6185  139.0204  159.4524 C.ar    1  UNL1        0.0332
     30 C         140.4529  140.9641  161.6425 C.3     1  UNL1        0.0067
     31 C         141.2438  141.1180  160.3772 C.3     1  UNL1        0.0474
@<TRIPOS>BOND
     1    30    31    1
     2    31    19    1
     3    19    20   ar
     4    20    21   ar
     5    21    22   ar
     6    22    23    1
     7    22    24   ar
     8    24    25   ar
     9    25    26    1
    10    25    27   ar
    11    27    28   ar
    12    28    29   ar
    13    29    18    1
    14    18     1    1
    15     1     2   ar
    16     2     3   ar
    17     3     4   ar
    18     4     7    1
    19     7     8    2
    20     8     9    1
    21     9    10    1
    22    10    11    1
    23    11    12    1
    24    12    13    1
    25    13    14   am
    26    14    15    2
    27    14    16    1
    28     4     5   ar
    29     5     6   ar
    30    29    19   ar
    31     6     1   ar
    32    28    21   ar
    33    16    10    1
    34    13    17    1
@<TRIPOS>MOLECULE
*****
 31 34 0 0 0
SMALL
GASTEIGER

@<TRIPOS>ATOM
      1 C         140.0301  139.7043  160.9399 C.ar    1  UNL1       -0.0176
      2 C         139.6649  138.3418  161.4500 C.ar    1  UNL1       -0.0039
      3 C         139.3277  138.1490  162.8988 C.ar    1  UNL1       -0.0003
      4 C         139.3558  139.3185  163.8375 C.ar    1  UNL1       -0.0003
      5 C         139.7210  140.6811  163.3275 C.ar    1  UNL1       -0.0003
      6 C         140.0582  140.8739  161.8787 C.ar    1  UNL1       -0.0039
      7 C         139.0186  139.1256  165.2863 C.2     1  UNL1       -0.0032
      8 C         139.7283  139.9296  166.3352 C.2     1  UNL1       -0.0088
      9 C         139.3911  139.7365  167.7839 C.3     1  UNL1        0.0993
     10 N         140.3635  140.1629  168.8435 N.3     1  UNL1       -0.2597
     11 C         141.8031  139.7523  168.7494 C.3     1  UNL1        0.0942
     12 C         142.7754  140.1787  169.8090 C.3     1  UNL1        0.1068
     13 N         142.3081  141.0158  170.9627 N.am    1  UNL1       -0.3018
     14 C         140.8685  141.4264  171.0569 C.2     1  UNL1        0.2389
     15 O         140.4012  142.2634  172.2105 O.2     1  UNL1       -0.2736
     16 C         139.8962  140.9999  169.9972 C.3     1  UNL1        0.1587
     17 H         142.9463  141.2956  171.6582 H       1  UNL1        0.1495
     18 C         140.3673  139.8973  159.4910 C.3     1  UNL1        0.0570
     19 C         142.4991  138.3291  159.1153 C.ar    1  UNL1        0.0782
     20 N         142.8835  137.2848  158.1095 N.ar    1  UNL1       -0.1687
     21 N         141.7589  137.1524  157.1258 N.ar    1  UNL1       -0.2168
     22 C         141.5782  136.2797  155.9193 C.ar    1  UNL1        0.0636
     23 C         142.6577  135.3171  155.5215 C.3     1  UNL1        0.0522
     24 C         140.3182  136.3696  155.1105 C.ar    1  UNL1        0.0296
     25 C         139.2387  137.3321  155.5083 C.ar    1  UNL1        0.0622
     26 C         137.9786  137.4220  154.6995 C.3     1  UNL1        0.0522
     27 N         139.4193  138.2048  156.7149 N.ar    1  UNL1       -0.2311
     28 C         140.6794  138.1149  157.5236 C.ar    1  UNL1        0.1604
     29 C         141.1369  138.8422  158.7531 C.ar    1  UNL1        0.0332
     30 C         143.3668  137.9652  161.5369 C.3     1  UNL1        0.0067
     31 C         143.3309  138.7811  160.2788 C.3     1  UNL1        0.0474
@<TRIPOS>BOND
     1    30    31    1
     2    31    19    1
     3    19    20   ar
     4    20    21   ar
     5    21    22   ar
     6    22    23    1
     7    22    24   ar
     8    24    25   ar
     9    25    26    1
    10    25    27   ar
    11    27    28   ar
    12    28    29   ar
    13    29    18    1
    14    18     1    1
    15     1     2   ar
    16     2     3   ar
    17     3     4   ar
    18     4     7    1
    19     7     8    2
    20     8     9    1
    21     9    10    1
    22    10    11    1
    23    11    12    1
    24    12    13    1
    25    13    14   am
    26    14    15    2
    27    14    16    1
    28     4     5   ar
    29     5     6   ar
    30    29    19   ar
    31     6     1   ar
    32    28    21   ar
    33    16    10    1
    34    13    17    1
@<TRIPOS>MOLECULE
*****
 31 34 0 0 0
SMALL
GASTEIGER

@<TRIPOS>ATOM
      1 C         138.9748  138.8463  161.7395 C.ar    1  UNL1       -0.0176
      2 C         139.6393  137.7852  162.5657 C.ar    1  UNL1       -0.0039
      3 C         139.5117  137.8086  164.0600 C.ar    1  UNL1       -0.0003
      4 C         138.7196  138.8931  164.7282 C.ar    1  UNL1       -0.0003
      5 C         138.0550  139.9541  163.9021 C.ar    1  UNL1       -0.0003
      6 C         138.1826  139.9307  162.4078 C.ar    1  UNL1       -0.0039
      7 C         138.5920  138.9164  166.2226 C.2     1  UNL1       -0.0032
      8 C         139.3179  139.9583  167.0212 C.2     1  UNL1       -0.0088
      9 C         139.1903  139.9815  168.5156 C.3     1  UNL1        0.0993
     10 N         140.3098  140.5210  169.3555 N.3     1  UNL1       -0.2597
     11 C         140.2846  141.9500  169.8107 C.3     1  UNL1        0.0942
     12 C         141.4042  142.4895  170.6507 C.3     1  UNL1        0.1068
     13 N         142.5491  141.5998  171.0355 N.am    1  UNL1       -0.3018
     14 C         142.5743  140.1708  170.5803 C.2     1  UNL1        0.2389
     15 O         143.7190  139.2811  170.9650 O.2     1  UNL1       -0.2736
     16 C         141.4546  139.6314  169.7403 C.3     1  UNL1        0.1587
     17 H         143.2839  141.9539  171.5868 H       1  UNL1        0.1495
     18 C         139.1023  138.8229  160.2451 C.3     1  UNL1        0.0570
     19 C         140.6149  140.9531  159.6801 C.ar    1  UNL1        0.0782
     20 N         140.5050  142.1107  158.7325 N.ar    1  UNL1       -0.1687
     21 N         139.2250  141.9615  157.9648 N.ar    1  UNL1       -0.2168
     22 C         138.5918  142.8021  156.8961 C.ar    1  UNL1        0.0636
     23 C         139.2730  144.0519  156.4229 C.3     1  UNL1        0.0522
     24 C         137.2773  142.3930  156.3005 C.ar    1  UNL1        0.0296
     25 C         136.5961  141.1432  156.7737 C.ar    1  UNL1        0.0622
     26 C         135.2815  140.7341  156.1781 C.3     1  UNL1        0.0522
     27 N         137.2293  140.3025  157.8425 N.ar    1  UNL1       -0.2311
     28 C         138.5438  140.7117  158.4380 C.ar    1  UNL1        0.1604
     29 C         139.4028  140.0885  159.4981 C.ar    1  UNL1        0.0332
     30 C         141.6998  141.3060  162.0143 C.3     1  UNL1        0.0067
     31 C         141.7394  140.7040  160.6410 C.3     1  UNL1        0.0474
@<TRIPOS>BOND
     1    30    31    1
     2    31    19    1
     3    19    20   ar
     4    20    21   ar
     5    21    22   ar
     6    22    23    1
     7    22    24   ar
     8    24    25   ar
     9    25    26    1
    10    25    27   ar
    11    27    28   ar
    12    28    29   ar
    13    29    18    1
    14    18     1    1
    15     1     2   ar
    16     2     3   ar
    17     3     4   ar
    18     4     7    1
    19     7     8    2
    20     8     9    1
    21     9    10    1
    22    10    11    1
    23    11    12    1
    24    12    13    1
    25    13    14   am
    26    14    15    2
    27    14    16    1
    28     4     5   ar
    29     5     6   ar
    30    29    19   ar
    31     6     1   ar
    32    28    21   ar
    33    16    10    1
    34    13    17    1
@<TRIPOS>MOLECULE
*****
 31 34 0 0 0
SMALL
GASTEIGER

@<TRIPOS>ATOM
      1 C         140.2329  144.4644  162.2036 C.ar    1  UNL1       -0.0176
      2 C         140.8101  144.7303  163.5623 C.ar    1  UNL1       -0.0039
      3 C         140.5079  143.8013  164.7005 C.ar    1  UNL1       -0.0003
      4 C         139.6284  142.6063  164.4800 C.ar    1  UNL1       -0.0003
      5 C         139.0512  142.3404  163.1213 C.ar    1  UNL1       -0.0003
      6 C         139.3534  143.2694  161.9832 C.ar    1  UNL1       -0.0039
      7 C         139.3262  141.6773  165.6183 C.2     1  UNL1       -0.0032
      8 C         140.4475  141.0428  166.3865 C.2     1  UNL1       -0.0088
      9 C         140.1452  140.1138  167.5247 C.3     1  UNL1        0.0993
     10 N         140.8562  140.2774  168.8354 N.3     1  UNL1       -0.2597
     11 C         142.1554  139.5679  169.0776 C.3     1  UNL1        0.0942
     12 C         142.8663  139.7316  170.3882 C.3     1  UNL1        0.1068
     13 N         142.2780  140.6047  171.4568 N.am    1  UNL1       -0.3018
     14 C         140.9788  141.3142  171.2146 C.2     1  UNL1        0.2389
     15 O         140.3904  142.1873  172.2829 O.2     1  UNL1       -0.2736
     16 C         140.2679  141.1505  169.9039 C.3     1  UNL1        0.1587
     17 H         142.7446  140.7121  172.3170 H       1  UNL1        0.1495
     18 C         140.5351  145.3935  161.0654 C.3     1  UNL1        0.0570
     19 C         142.4115  143.9024  159.8818 C.ar    1  UNL1        0.0782
     20 N         142.8617  143.6908  158.4667 N.ar    1  UNL1       -0.1687
     21 N         142.0127  144.5496  157.5769 N.ar    1  UNL1       -0.2168
     22 C         142.0015  144.7514  156.0906 C.ar    1  UNL1        0.0636
     23 C         142.9764  144.0091  155.2254 C.3     1  UNL1        0.0522
     24 C         141.0153  145.6957  155.4695 C.ar    1  UNL1        0.0296
     25 C         140.0404  146.4380  156.3346 C.ar    1  UNL1        0.0622
     26 C         139.0542  147.3823  155.7134 C.3     1  UNL1        0.0522
     27 N         140.0517  146.2361  157.8209 N.ar    1  UNL1       -0.2311
     28 C         141.0379  145.2919  158.4420 C.ar    1  UNL1        0.1604
     29 C         141.2843  144.8919  159.8666 C.ar    1  UNL1        0.0332
     30 C         142.7641  141.7760  161.3323 C.3     1  UNL1        0.0067
     31 C         142.9874  143.2407  161.0986 C.3     1  UNL1        0.0474
@<TRIPOS>BOND
     1    30    31    1
     2    31    19    1
     3    19    20   ar
     4    20    21   ar
     5    21    22   ar
     6    22    23    1
     7    22    24   ar
     8    24    25   ar
     9    25    26    1
    10    25    27   ar
    11    27    28   ar
    12    28    29   ar
    13    29    18    1
    14    18     1    1
    15     1     2   ar
    16     2     3   ar
    17     3     4   ar
    18     4     7    1
    19     7     8    2
    20     8     9    1
    21     9    10    1
    22    10    11    1
    23    11    12    1
    24    12    13    1
    25    13    14   am
    26    14    15    2
    27    14    16    1
    28     4     5   ar
    29     5     6   ar
    30    29    19   ar
    31     6     1   ar
    32    28    21   ar
    33    16    10    1
    34    13    17    1
@<TRIPOS>MOLECULE
*****
 31 34 0 0 0
SMALL
GASTEIGER

@<TRIPOS>ATOM
      1 C         138.6727  139.6183  160.8058 C.ar    1  UNL1       -0.0176
      2 C         137.9196  140.7577  161.4259 C.ar    1  UNL1       -0.0039
      3 C         137.7211  140.8049  162.9119 C.ar    1  UNL1       -0.0003
      4 C         138.2755  139.7128  163.7778 C.ar    1  UNL1       -0.0003
      5 C         139.0286  138.5733  163.1577 C.ar    1  UNL1       -0.0003
      6 C         139.2272  138.5261  161.6717 C.ar    1  UNL1       -0.0039
      7 C         138.0769  139.7601  165.2639 C.2     1  UNL1       -0.0032
      8 C         139.2608  139.6830  166.1817 C.2     1  UNL1       -0.0088
      9 C         139.0621  139.7303  167.6677 C.3     1  UNL1        0.0993
     10 N         140.1725  140.2040  168.5581 N.3     1  UNL1       -0.2597
     11 C         141.6010  139.9966  168.1505 C.3     1  UNL1        0.0942
     12 C         142.7113  140.4703  169.0409 C.3     1  UNL1        0.1068
     13 N         142.3931  141.1515  170.3389 N.am    1  UNL1       -0.3018
     14 C         140.9645  141.3590  170.7465 C.2     1  UNL1        0.2389
     15 O         140.6461  142.0401  172.0444 O.2     1  UNL1       -0.2736
     16 C         139.8542  140.8852  169.8560 C.3     1  UNL1        0.1587
     17 H         143.1218  141.4625  170.9233 H       1  UNL1        0.1495
     18 C         138.8713  139.5710  159.3197 C.3     1  UNL1        0.0570
     19 C         139.6968  142.0001  158.5693 C.ar    1  UNL1        0.0782
     20 N         139.2126  143.0298  157.5919 N.ar    1  UNL1       -0.1687
     21 N         137.9795  142.4940  156.9268 N.ar    1  UNL1       -0.2168
     22 C         137.0739  143.0694  155.8787 C.ar    1  UNL1        0.0636
     23 C         137.3518  144.4304  155.3124 C.3     1  UNL1        0.0522
     24 C         135.8903  142.2840  155.3968 C.ar    1  UNL1        0.0296
     25 C         135.6124  140.9231  155.9631 C.ar    1  UNL1        0.0622
     26 C         134.4288  140.1376  155.4812 C.3     1  UNL1        0.0522
     27 N         136.5180  140.3476  157.0112 N.ar    1  UNL1       -0.2311
     28 C         137.7016  141.1331  157.4930 C.ar    1  UNL1        0.1604
     29 C         138.7629  140.8278  158.5081 C.ar    1  UNL1        0.0332
     30 C         140.8483  142.9769  160.6835 C.3     1  UNL1        0.0067
     31 C         140.9030  142.1213  159.4526 C.3     1  UNL1        0.0474
@<TRIPOS>BOND
     1    30    31    1
     2    31    19    1
     3    19    20   ar
     4    20    21   ar
     5    21    22   ar
     6    22    23    1
     7    22    24   ar
     8    24    25   ar
     9    25    26    1
    10    25    27   ar
    11    27    28   ar
    12    28    29   ar
    13    29    18    1
    14    18     1    1
    15     1     2   ar
    16     2     3   ar
    17     3     4   ar
    18     4     7    1
    19     7     8    2
    20     8     9    1
    21     9    10    1
    22    10    11    1
    23    11    12    1
    24    12    13    1
    25    13    14   am
    26    14    15    2
    27    14    16    1
    28     4     5   ar
    29     5     6   ar
    30    29    19   ar
    31     6     1   ar
    32    28    21   ar
    33    16    10    1
    34    13    17    1
@<TRIPOS>MOLECULE
*****
 31 34 0 0 0
SMALL
GASTEIGER

@<TRIPOS>ATOM
      1 C         140.0512  143.7962  164.9464 C.ar    1  UNL1       -0.0176
      2 C         141.3801  144.1710  164.3602 C.ar    1  UNL1       -0.0039
      3 C         141.4471  144.8296  163.0142 C.ar    1  UNL1       -0.0003
      4 C         140.1853  145.1133  162.2544 C.ar    1  UNL1       -0.0003
      5 C         138.8564  144.7384  162.8405 C.ar    1  UNL1       -0.0003
      6 C         138.7894  144.0799  164.1865 C.ar    1  UNL1       -0.0039
      7 C         140.2524  145.7719  160.9084 C.2     1  UNL1       -0.0032
      8 C         141.0241  145.1270  159.7954 C.2     1  UNL1       -0.0088
      9 C         141.0912  145.7856  158.4494 C.3     1  UNL1        0.0993
     10 N         140.0814  145.4415  157.3950 N.3     1  UNL1       -0.2597
     11 C         139.6026  146.4966  156.4423 C.3     1  UNL1        0.0942
     12 C         138.5928  146.1525  155.3879 C.3     1  UNL1        0.1068
     13 N         138.0616  144.7532  155.2861 N.am    1  UNL1       -0.3018
     14 C         138.5404  143.6982  156.2388 C.2     1  UNL1        0.2389
     15 O         138.0094  142.2991  156.1372 O.2     1  UNL1       -0.2736
     16 C         139.5503  144.0424  157.2933 C.3     1  UNL1        0.1587
     17 H         137.3989  144.5274  154.5941 H       1  UNL1        0.1495
     18 C         139.9841  143.1375  166.2924 C.3     1  UNL1        0.0570
     19 C         141.7586  141.9597  167.9076 C.ar    1  UNL1        0.0782
     20 N         142.5929  140.7150  167.8386 N.ar    1  UNL1       -0.1687
     21 N         142.3048  140.0356  166.5327 N.ar    1  UNL1       -0.2168
     22 C         142.8334  138.7725  165.9204 C.ar    1  UNL1        0.0636
     23 C         143.8458  137.9477  166.6586 C.3     1  UNL1        0.0522
     24 C         142.3497  138.3342  164.5699 C.ar    1  UNL1        0.0296
     25 C         141.3374  139.1590  163.8318 C.ar    1  UNL1        0.0622
     26 C         140.8537  138.7206  162.4812 C.3     1  UNL1        0.0522
     27 N         140.8087  140.4221  164.4441 N.ar    1  UNL1       -0.2311
     28 C         141.2924  140.8604  165.7946 C.ar    1  UNL1        0.1604
     29 C         140.9549  142.0496  166.6443 C.ar    1  UNL1        0.0332
     30 C         140.4741  143.1409  169.8324 C.3     1  UNL1        0.0067
     31 C         141.7326  142.9421  169.0409 C.3     1  UNL1        0.0474
@<TRIPOS>BOND
     1    30    31    1
     2    31    19    1
     3    19    20   ar
     4    20    21   ar
     5    21    22   ar
     6    22    23    1
     7    22    24   ar
     8    24    25   ar
     9    25    26    1
    10    25    27   ar
    11    27    28   ar
    12    28    29   ar
    13    29    18    1
    14    18     1    1
    15     1     2   ar
    16     2     3   ar
    17     3     4   ar
    18     4     7    1
    19     7     8    2
    20     8     9    1
    21     9    10    1
    22    10    11    1
    23    11    12    1
    24    12    13    1
    25    13    14   am
    26    14    15    2
    27    14    16    1
    28     4     5   ar
    29     5     6   ar
    30    29    19   ar
    31     6     1   ar
    32    28    21   ar
    33    16    10    1
    34    13    17    1
@<TRIPOS>MOLECULE
*****
 31 34 0 0 0
SMALL
GASTEIGER

@<TRIPOS>ATOM
      1 C         142.7704  142.1223  165.5903 C.ar    1  UNL1       -0.0176
      2 C         143.8463  141.3875  164.8469 C.ar    1  UNL1       -0.0039
      3 C         144.1411  141.7343  163.4177 C.ar    1  UNL1       -0.0003
      4 C         143.3602  142.8159  162.7318 C.ar    1  UNL1       -0.0003
      5 C         142.2843  143.5507  163.4752 C.ar    1  UNL1       -0.0003
      6 C         141.9895  143.2039  164.9044 C.ar    1  UNL1       -0.0039
      7 C         143.6551  143.1626  161.3026 C.2     1  UNL1       -0.0032
      8 C         144.4072  142.1963  160.4361 C.2     1  UNL1       -0.0088
      9 C         144.7021  142.5431  159.0069 C.3     1  UNL1        0.0993
     10 N         144.6542  141.4782  157.9516 N.3     1  UNL1       -0.2597
     11 C         145.6364  141.5009  156.8181 C.3     1  UNL1        0.0942
     12 C         145.5885  140.4360  155.7628 C.3     1  UNL1        0.1068
     13 N         144.5583  139.3484  155.8409 N.am    1  UNL1       -0.3018
     14 C         143.5762  139.3257  156.9744 C.2     1  UNL1        0.2389
     15 O         142.5461  138.2382  157.0527 O.2     1  UNL1       -0.2736
     16 C         143.6241  140.3906  158.0297 C.3     1  UNL1        0.1587
     17 H         144.5269  138.6494  155.1483 H       1  UNL1        0.1495
     18 C         142.4755  141.7756  167.0196 C.3     1  UNL1        0.0570
     19 C         140.4128  141.2174  168.6255 C.ar    1  UNL1        0.0782
     20 N         139.2348  140.2915  168.5560 N.ar    1  UNL1       -0.1687
     21 N         139.3071  139.5460  167.2564 N.ar    1  UNL1       -0.2168
     22 C         138.4176  138.5037  166.6463 C.ar    1  UNL1        0.0636
     23 C         137.1948  138.0385  167.3800 C.3     1  UNL1        0.0522
     24 C         138.7509  137.9266  165.3025 C.ar    1  UNL1        0.0296
     25 C         139.9737  138.3918  164.5688 C.ar    1  UNL1        0.0622
     26 C         140.3069  137.8146  163.2249 C.3     1  UNL1        0.0522
     27 N         140.8632  139.4341  165.1789 N.ar    1  UNL1       -0.2311
     28 C         140.5299  140.0112  166.5227 C.ar    1  UNL1        0.1604
     29 C         141.2132  141.0442  167.3689 C.ar    1  UNL1        0.0332
     30 C         140.4500  143.6189  169.6163 C.3     1  UNL1        0.0067
     31 C         140.7340  142.1524  169.7537 C.3     1  UNL1        0.0474
@<TRIPOS>BOND
     1    30    31    1
     2    31    19    1
     3    19    20   ar
     4    20    21   ar
     5    21    22   ar
     6    22    23    1
     7    22    24   ar
     8    24    25   ar
     9    25    26    1
    10    25    27   ar
    11    27    28   ar
    12    28    29   ar
    13    29    18    1
    14    18     1    1
    15     1     2   ar
    16     2     3   ar
    17     3     4   ar
    18     4     7    1
    19     7     8    2
    20     8     9    1
    21     9    10    1
    22    10    11    1
    23    11    12    1
    24    12    13    1
    25    13    14   am
    26    14    15    2
    27    14    16    1
    28     4     5   ar
    29     5     6   ar
    30    29    19   ar
    31     6     1   ar
    32    28    21   ar
    33    16    10    1
    34    13    17    1
@<TRIPOS>MOLECULE
*****
 31 34 0 0 0
SMALL
GASTEIGER

@<TRIPOS>ATOM
      1 C         140.0983  144.6431  161.9906 C.ar    1  UNL1       -0.0176
      2 C         139.4546  143.3072  161.7646 C.ar    1  UNL1       -0.0039
      3 C         139.1093  142.4337  162.9341 C.ar    1  UNL1       -0.0003
      4 C         139.4075  142.8961  164.3295 C.ar    1  UNL1       -0.0003
      5 C         140.0512  144.2320  164.5555 C.ar    1  UNL1       -0.0003
      6 C         140.3966  145.1054  163.3860 C.ar    1  UNL1       -0.0039
      7 C         139.0621  142.0226  165.4990 C.2     1  UNL1       -0.0032
      8 C         140.1430  141.2743  166.2214 C.2     1  UNL1       -0.0088
      9 C         139.7975  140.4008  167.3908 C.3     1  UNL1        0.0993
     10 N         140.5974  140.4911  168.6565 N.3     1  UNL1       -0.2597
     11 C         141.9080  139.7702  168.7685 C.3     1  UNL1        0.0942
     12 C         142.7080  139.8605  170.0342 C.3     1  UNL1        0.1068
     13 N         142.1972  140.6718  171.1880 N.am    1  UNL1       -0.3018
     14 C         140.8866  141.3928  171.0760 C.2     1  UNL1        0.2389
     15 O         140.3759  142.2041  172.2296 O.2     1  UNL1       -0.2736
     16 C         140.0868  141.3024  169.8102 C.3     1  UNL1        0.1587
     17 H         142.7222  140.7311  172.0187 H       1  UNL1        0.1495
     18 C         140.4437  145.5167  160.8211 C.3     1  UNL1        0.0570
     19 C         141.0025  145.2145  158.2246 C.ar    1  UNL1        0.0782
     20 N         142.0420  144.4668  157.4435 N.ar    1  UNL1       -0.1687
     21 N         142.9302  143.7526  158.4188 N.ar    1  UNL1       -0.2168
     22 C         144.1222  142.8630  158.2255 C.ar    1  UNL1        0.0636
     23 C         144.6129  142.5566  156.8415 C.3     1  UNL1        0.0522
     24 C         144.8237  142.2797  159.4161 C.ar    1  UNL1        0.0296
     25 C         144.3330  142.5861  160.8001 C.ar    1  UNL1        0.0622
     26 C         145.0345  142.0027  161.9908 C.3     1  UNL1        0.0522
     27 N         143.1409  143.4757  160.9934 N.ar    1  UNL1       -0.2311
     28 C         142.4395  144.0590  159.8028 C.ar    1  UNL1        0.1604
     29 C         141.2482  144.9625  159.6827 C.ar    1  UNL1        0.0332
     30 C         139.9917  146.5298  156.2250 C.3     1  UNL1        0.0067
     31 C         139.9092  146.0649  157.6488 C.3     1  UNL1        0.0474
@<TRIPOS>BOND
     1    30    31    1
     2    31    19    1
     3    19    20   ar
     4    20    21   ar
     5    21    22   ar
     6    22    23    1
     7    22    24   ar
     8    24    25   ar
     9    25    26    1
    10    25    27   ar
    11    27    28   ar
    12    28    29   ar
    13    29    18    1
    14    18     1    1
    15     1     2   ar
    16     2     3   ar
    17     3     4   ar
    18     4     7    1
    19     7     8    2
    20     8     9    1
    21     9    10    1
    22    10    11    1
    23    11    12    1
    24    12    13    1
    25    13    14   am
    26    14    15    2
    27    14    16    1
    28     4     5   ar
    29     5     6   ar
    30    29    19   ar
    31     6     1   ar
    32    28    21   ar
    33    16    10    1
    34    13    17    1
@<TRIPOS>MOLECULE
*****
 31 34 0 0 0
SMALL
GASTEIGER

@<TRIPOS>ATOM
      1 C         138.3656  139.7383  161.7698 C.ar    1  UNL1       -0.0176
      2 C         138.7141  138.4197  162.3943 C.ar    1  UNL1       -0.0039
      3 C         138.6975  138.2691  163.8866 C.ar    1  UNL1       -0.0003
      4 C         138.3324  139.4369  164.7543 C.ar    1  UNL1       -0.0003
      5 C         137.9840  140.7554  164.1298 C.ar    1  UNL1       -0.0003
      6 C         138.0006  140.9061  162.6375 C.ar    1  UNL1       -0.0039
      7 C         138.3158  139.2861  166.2466 C.2     1  UNL1       -0.0032
      8 C         139.2897  140.0554  167.0892 C.2     1  UNL1       -0.0088
      9 C         139.2730  139.9046  168.5814 C.3     1  UNL1        0.0993
     10 N         140.2232  140.7005  169.4263 N.3     1  UNL1       -0.2597
     11 C         141.2767  140.0005  170.2325 C.3     1  UNL1        0.0942
     12 C         142.2269  140.7964  171.0773 C.3     1  UNL1        0.1068
     13 N         142.1235  142.2924  171.1159 N.am    1  UNL1       -0.3018
     14 C         141.0699  142.9924  170.3097 C.2     1  UNL1        0.2389
     15 O         140.9665  144.4883  170.3483 O.2     1  UNL1       -0.2736
     16 C         140.1198  142.1964  169.4649 C.3     1  UNL1        0.1587
     17 H         142.7471  142.8148  171.6704 H       1  UNL1        0.1495
     18 C         138.3822  139.8890  160.2774 C.3     1  UNL1        0.0570
     19 C         139.4461  141.7422  158.6715 C.ar    1  UNL1        0.0782
     20 N         140.8374  142.0978  158.2382 N.ar    1  UNL1       -0.1687
     21 N         141.7876  141.1471  158.9042 N.ar    1  UNL1       -0.2168
     22 C         143.2811  141.0184  158.8504 C.ar    1  UNL1        0.0636
     23 C         144.0852  141.9616  158.0054 C.3     1  UNL1        0.0522
     24 C         143.9704  139.9466  159.6415 C.ar    1  UNL1        0.0296
     25 C         143.1663  139.0035  160.4864 C.ar    1  UNL1        0.0622
     26 C         143.8557  137.9317  161.2776 C.3     1  UNL1        0.0522
     27 N         141.6728  139.1322  160.5402 N.ar    1  UNL1       -0.2311
     28 C         140.9835  140.2040  159.7491 C.ar    1  UNL1        0.1604
     29 C         139.5364  140.5718  159.6053 C.ar    1  UNL1        0.0332
     30 C         137.3416  141.8516  157.1520 C.3     1  UNL1        0.0067
     31 C         138.1858  142.4354  158.2458 C.3     1  UNL1        0.0474
@<TRIPOS>BOND
     1    30    31    1
     2    31    19    1
     3    19    20   ar
     4    20    21   ar
     5    21    22   ar
     6    22    23    1
     7    22    24   ar
     8    24    25   ar
     9    25    26    1
    10    25    27   ar
    11    27    28   ar
    12    28    29   ar
    13    29    18    1
    14    18     1    1
    15     1     2   ar
    16     2     3   ar
    17     3     4   ar
    18     4     7    1
    19     7     8    2
    20     8     9    1
    21     9    10    1
    22    10    11    1
    23    11    12    1
    24    12    13    1
    25    13    14   am
    26    14    15    2
    27    14    16    1
    28     4     5   ar
    29     5     6   ar
    30    29    19   ar
    31     6     1   ar
    32    28    21   ar
    33    16    10    1
    34    13    17    1
