@<TRIPOS>MOLECULE
*****
 20 21 0 0 0
SMALL
GASTEIGER

@<TRIPOS>ATOM
      1 C         141.2071  144.1487  164.0615 C.ar    1  UNL1        0.0267
      2 C         142.0867  145.3381  163.8137 C.ar    1  UNL1        0.0001
      3 C         143.5727  145.2199  163.9811 C.ar    1  UNL1       -0.0001
      4 C         144.1790  143.9123  164.3962 C.ar    1  UNL1        0.0031
      5 C         143.2993  142.7228  164.6440 C.ar    1  UNL1        0.0372
      6 C         141.8134  142.8411  164.4767 C.ar    1  UNL1        0.1425
      7 C         138.8854  144.8425  164.9988 C.3     1  UNL1        0.0223
      8 C         139.7211  144.2670  163.8942 C.3     1  UNL1        0.0832
      9 N         139.0709  143.8096  162.6222 N.3     1  UNL1       -0.2678
     10 C         139.6976  144.1376  161.2995 C.3     1  UNL1        0.0899
     11 C         137.7939  143.0242  162.6729 C.3     1  UNL1        0.0899
     12 O         140.9337  141.6515  164.7245 O.3     1  UNL1       -0.4537
     13 C         140.4797  141.3318  166.1179 C.ar    1  UNL1        0.1462
     14 C         139.7698  140.0403  166.3976 C.ar    1  UNL1        0.0384
     15 C         139.3158  139.7206  167.7910 C.ar    1  UNL1        0.0154
     16 C         139.5717  140.6922  168.9047 C.ar    1  UNL1        0.0684
     17 CL        139.1176  140.3725  170.2981 Cl      1  UNL1       -0.0814
     18 C         140.2815  141.9837  168.6251 C.ar    1  UNL1        0.0712
     19 CL        140.5374  142.9553  169.7388 Cl      1  UNL1       -0.0813
     20 C         140.7356  142.3035  167.2316 C.ar    1  UNL1        0.0497
@<TRIPOS>BOND
     1     7     8    1
     2     8     1    1
     3     1     2   ar
     4     2     3   ar
     5     3     4   ar
     6     4     5   ar
     7     5     6   ar
     8     6    12    1
     9    12    13    1
    10    13    14   ar
    11    14    15   ar
    12    15    16   ar
    13    16    17    1
    14    16    18   ar
    15    18    19    1
    16    18    20   ar
    17     8     9    1
    18     9    10    1
    19     9    11    1
    20     6     1   ar
    21    20    13   ar
@<TRIPOS>MOLECULE
*****
 20 21 0 0 0
SMALL
GASTEIGER

@<TRIPOS>ATOM
      1 C         139.8827  139.9090  167.9692 C.ar    1  UNL1        0.0267
      2 C         139.3755  140.4963  169.2528 C.ar    1  UNL1        0.0001
      3 C         140.3203  140.7361  170.3929 C.ar    1  UNL1       -0.0001
      4 C         141.7724  140.3887  170.2493 C.ar    1  UNL1        0.0031
      5 C         142.2797  139.8014  168.9657 C.ar    1  UNL1        0.0372
      6 C         141.3348  139.5615  167.8256 C.ar    1  UNL1        0.1425
      7 C         137.8203  138.6796  166.9767 C.3     1  UNL1        0.0223
      8 C         138.9379  139.6691  166.8291 C.3     1  UNL1        0.0832
      9 N         139.1107  140.4188  165.5414 N.3     1  UNL1       -0.2678
     10 C         139.0316  139.6899  164.2328 C.3     1  UNL1        0.0899
     11 C         139.3625  141.8974  165.5623 C.3     1  UNL1        0.0899
     12 O         141.8422  138.9742  166.5420 O.3     1  UNL1       -0.4537
     13 C         142.8971  139.6925  165.7538 C.ar    1  UNL1        0.1462
     14 C         143.8887  138.9123  164.9426 C.ar    1  UNL1        0.0384
     15 C         144.9436  139.6306  164.1545 C.ar    1  UNL1        0.0154
     16 C         145.0069  141.1291  164.1775 C.ar    1  UNL1        0.0684
     17 CL        146.0618  141.8474  163.3893 Cl      1  UNL1       -0.0814
     18 C         144.0154  141.9093  164.9886 C.ar    1  UNL1        0.0712
     19 CL        144.0787  143.4077  165.0117 Cl      1  UNL1       -0.0813
     20 C         142.9604  141.1910  165.7768 C.ar    1  UNL1        0.0497
@<TRIPOS>BOND
     1     7     8    1
     2     8     1    1
     3     1     2   ar
     4     2     3   ar
     5     3     4   ar
     6     4     5   ar
     7     5     6   ar
     8     6    12    1
     9    12    13    1
    10    13    14   ar
    11    14    15   ar
    12    15    16   ar
    13    16    17    1
    14    16    18   ar
    15    18    19    1
    16    18    20   ar
    17     8     9    1
    18     9    10    1
    19     9    11    1
    20     6     1   ar
    21    20    13   ar
@<TRIPOS>MOLECULE
*****
 20 21 0 0 0
SMALL
GASTEIGER

@<TRIPOS>ATOM
      1 C         139.7937  140.7435  167.7414 C.ar    1  UNL1        0.0267
      2 C         138.8875  139.5741  167.9889 C.ar    1  UNL1        0.0001
      3 C         138.0772  139.0019  166.8638 C.ar    1  UNL1       -0.0001
      4 C         138.1729  139.5990  165.4912 C.ar    1  UNL1        0.0031
      5 C         139.0791  140.7684  165.2436 C.ar    1  UNL1        0.0372
      6 C         139.8895  141.3406  166.3687 C.ar    1  UNL1        0.1425
      7 C         139.9550  142.2146  169.8767 C.3     1  UNL1        0.0223
      8 C         140.6041  141.3157  168.8665 C.3     1  UNL1        0.0832
      9 N         142.0636  140.9891  168.9812 N.3     1  UNL1       -0.2678
     10 C         143.0753  142.0937  169.0606 C.3     1  UNL1        0.0899
     11 C         142.5114  139.5579  169.0167 C.3     1  UNL1        0.0899
     12 O         140.7957  142.5101  166.1211 O.3     1  UNL1       -0.4537
     13 C         142.1231  142.3023  165.4542 C.ar    1  UNL1        0.1462
     14 C         142.8480  143.4669  164.8473 C.ar    1  UNL1        0.0384
     15 C         144.1754  143.2591  164.1804 C.ar    1  UNL1        0.0154
     16 C         144.7779  141.8868  164.1202 C.ar    1  UNL1        0.0684
     17 CL        146.1053  141.6790  163.4533 Cl      1  UNL1       -0.0814
     18 C         144.0530  140.7222  164.7271 C.ar    1  UNL1        0.0712
     19 CL        144.6555  139.3498  164.6669 Cl      1  UNL1       -0.0813
     20 C         142.7256  140.9299  165.3941 C.ar    1  UNL1        0.0497
@<TRIPOS>BOND
     1     7     8    1
     2     8     1    1
     3     1     2   ar
     4     2     3   ar
     5     3     4   ar
     6     4     5   ar
     7     5     6   ar
     8     6    12    1
     9    12    13    1
    10    13    14   ar
    11    14    15   ar
    12    15    16   ar
    13    16    17    1
    14    16    18   ar
    15    18    19    1
    16    18    20   ar
    17     8     9    1
    18     9    10    1
    19     9    11    1
    20     6     1   ar
    21    20    13   ar
@<TRIPOS>MOLECULE
*****
 20 21 0 0 0
SMALL
GASTEIGER

@<TRIPOS>ATOM
      1 C         138.9056  141.7714  164.6840 C.ar    1  UNL1        0.0267
      2 C         137.6845  142.6164  164.4727 C.ar    1  UNL1        0.0001
      3 C         137.7985  144.1121  164.4707 C.ar    1  UNL1       -0.0001
      4 C         139.1336  144.7628  164.6801 C.ar    1  UNL1        0.0031
      5 C         140.3548  143.9178  164.8914 C.ar    1  UNL1        0.0372
      6 C         140.2408  142.4221  164.8934 C.ar    1  UNL1        0.1425
      7 C         138.3966  139.5554  165.9409 C.3     1  UNL1        0.0223
      8 C         138.7916  140.2758  164.6860 C.3     1  UNL1        0.0832
      9 N         139.0726  139.5005  163.4330 N.3     1  UNL1       -0.2678
     10 C         140.4013  138.8292  163.2485 C.3     1  UNL1        0.0899
     11 C         138.0250  139.3966  162.3645 C.3     1  UNL1        0.0899
     12 O         141.4621  141.5771  165.1047 O.3     1  UNL1       -0.4537
     13 C         141.8760  141.1914  166.4939 C.ar    1  UNL1        0.1462
     14 C         142.1152  139.7496  166.8321 C.ar    1  UNL1        0.0384
     15 C         142.5291  139.3639  168.2212 C.ar    1  UNL1        0.0154
     16 C         142.7037  140.4197  169.2723 C.ar    1  UNL1        0.0684
     17 CL        143.1176  140.0340  170.6614 Cl      1  UNL1       -0.0814
     18 C         142.4645  141.8614  168.9341 C.ar    1  UNL1        0.0712
     19 CL        142.6391  142.9173  169.9851 Cl      1  UNL1       -0.0813
     20 C         142.0506  142.2472  167.5449 C.ar    1  UNL1        0.0497
@<TRIPOS>BOND
     1     7     8    1
     2     8     1    1
     3     1     2   ar
     4     2     3   ar
     5     3     4   ar
     6     4     5   ar
     7     5     6   ar
     8     6    12    1
     9    12    13    1
    10    13    14   ar
    11    14    15   ar
    12    15    16   ar
    13    16    17    1
    14    16    18   ar
    15    18    19    1
    16    18    20   ar
    17     8     9    1
    18     9    10    1
    19     9    11    1
    20     6     1   ar
    21    20    13   ar
@<TRIPOS>MOLECULE
*****
 20 21 0 0 0
SMALL
GASTEIGER

@<TRIPOS>ATOM
      1 C         143.8318  140.1707  164.6262 C.ar    1  UNL1        0.0267
      2 C         145.2028  140.2450  164.0223 C.ar    1  UNL1        0.0001
      3 C         145.7739  141.5722  163.6194 C.ar    1  UNL1       -0.0001
      4 C         144.9740  142.8251  163.8202 C.ar    1  UNL1        0.0031
      5 C         143.6030  142.7507  164.4240 C.ar    1  UNL1        0.0372
      6 C         143.0318  141.4236  164.8270 C.ar    1  UNL1        0.1425
      7 C         143.6853  138.2044  166.3180 C.3     1  UNL1        0.0223
      8 C         143.2606  138.8435  165.0291 C.3     1  UNL1        0.0832
      9 N         142.2648  138.1554  164.1433 N.3     1  UNL1       -0.2678
     10 C         141.0107  137.5791  164.7307 C.3     1  UNL1        0.0899
     11 C         142.5231  138.0436  162.6698 C.3     1  UNL1        0.0899
     12 O         141.6607  141.3493  165.4308 O.3     1  UNL1       -0.4537
     13 C         141.4902  141.4420  166.9182 C.ar    1  UNL1        0.1462
     14 C         142.5388  142.1158  167.7528 C.ar    1  UNL1        0.0384
     15 C         142.3683  142.2085  169.2402 C.ar    1  UNL1        0.0154
     16 C         141.1492  141.6274  169.8930 C.ar    1  UNL1        0.0684
     17 CL        140.9787  141.7201  171.3804 Cl      1  UNL1       -0.0814
     18 C         140.1007  140.9536  169.0585 C.ar    1  UNL1        0.0712
     19 CL        138.8816  140.3726  169.7113 Cl      1  UNL1       -0.0813
     20 C         140.2711  140.8609  167.5710 C.ar    1  UNL1        0.0497
@<TRIPOS>BOND
     1     7     8    1
     2     8     1    1
     3     1     2   ar
     4     2     3   ar
     5     3     4   ar
     6     4     5   ar
     7     5     6   ar
     8     6    12    1
     9    12    13    1
    10    13    14   ar
    11    14    15   ar
    12    15    16   ar
    13    16    17    1
    14    16    18   ar
    15    18    19    1
    16    18    20   ar
    17     8     9    1
    18     9    10    1
    19     9    11    1
    20     6     1   ar
    21    20    13   ar
@<TRIPOS>MOLECULE
*****
 20 21 0 0 0
SMALL
GASTEIGER

@<TRIPOS>ATOM
      1 C         141.2148  139.6115  165.6487 C.ar    1  UNL1        0.0267
      2 C         141.3964  138.1977  165.1817 C.ar    1  UNL1        0.0001
      3 C         140.2092  137.3967  164.7356 C.ar    1  UNL1       -0.0001
      4 C         138.8403  138.0096  164.7565 C.ar    1  UNL1        0.0031
      5 C         138.6586  139.4234  165.2235 C.ar    1  UNL1        0.0372
      6 C         139.8459  140.2243  165.6696 C.ar    1  UNL1        0.1425
      7 C         143.3980  140.9025  165.0859 C.3     1  UNL1        0.0223
      8 C         142.4020  140.4124  166.0947 C.3     1  UNL1        0.0832
      9 N         142.5932  140.7232  167.5496 N.3     1  UNL1       -0.2678
     10 C         142.8618  142.1328  167.9865 C.3     1  UNL1        0.0899
     11 C         142.5159  139.6243  168.5678 C.3     1  UNL1        0.0899
     12 O         139.6641  141.6382  166.1366 O.3     1  UNL1       -0.4537
     13 C         139.6497  142.7607  165.1417 C.ar    1  UNL1        0.1462
     14 C         138.3952  143.0724  164.3808 C.ar    1  UNL1        0.0384
     15 C         138.3807  144.1949  163.3859 C.ar    1  UNL1        0.0154
     16 C         139.6208  145.0057  163.1520 C.ar    1  UNL1        0.0684
     17 CL        139.6064  146.1281  162.1571 Cl      1  UNL1       -0.0814
     18 C         140.8754  144.6940  163.9129 C.ar    1  UNL1        0.0712
     19 CL        142.1154  145.5048  163.6789 Cl      1  UNL1       -0.0813
     20 C         140.8898  143.5715  164.9078 C.ar    1  UNL1        0.0497
@<TRIPOS>BOND
     1     7     8    1
     2     8     1    1
     3     1     2   ar
     4     2     3   ar
     5     3     4   ar
     6     4     5   ar
     7     5     6   ar
     8     6    12    1
     9    12    13    1
    10    13    14   ar
    11    14    15   ar
    12    15    16   ar
    13    16    17    1
    14    16    18   ar
    15    18    19    1
    16    18    20   ar
    17     8     9    1
    18     9    10    1
    19     9    11    1
    20     6     1   ar
    21    20    13   ar
@<TRIPOS>MOLECULE
*****
 20 21 0 0 0
SMALL
GASTEIGER

@<TRIPOS>ATOM
      1 C         141.3917  144.5011  163.3184 C.ar    1  UNL1        0.0267
      2 C         142.4920  145.3512  163.8811 C.ar    1  UNL1        0.0001
      3 C         143.8210  144.7376  164.2084 C.ar    1  UNL1       -0.0001
      4 C         144.0498  143.2740  163.9729 C.ar    1  UNL1        0.0031
      5 C         142.9495  142.4240  163.4101 C.ar    1  UNL1        0.0372
      6 C         141.6204  143.0376  163.0829 C.ar    1  UNL1        0.1425
      7 C         139.9511  146.1121  161.8764 C.3     1  UNL1        0.0223
      8 C         140.0626  145.1147  162.9911 C.3     1  UNL1        0.0832
      9 N         138.8450  144.7309  163.7786 N.3     1  UNL1       -0.2678
     10 C         137.6239  144.2224  163.0714 C.3     1  UNL1        0.0899
     11 C         138.8486  144.8555  165.2735 C.3     1  UNL1        0.0899
     12 O         140.5201  142.1874  162.5201 O.3     1  UNL1       -0.4537
     13 C         140.0494  140.9767  163.2702 C.ar    1  UNL1        0.1462
     14 C         138.9413  141.1000  164.2737 C.ar    1  UNL1        0.0384
     15 C         138.4707  139.8893  165.0237 C.ar    1  UNL1        0.0154
     16 C         139.1080  138.5553  164.7703 C.ar    1  UNL1        0.0684
     17 CL        138.6373  137.3446  165.5203 Cl      1  UNL1       -0.0814
     18 C         140.2160  138.4320  163.7668 C.ar    1  UNL1        0.0712
     19 CL        140.8534  137.0980  163.5134 Cl      1  UNL1       -0.0813
     20 C         140.6868  139.6427  163.0167 C.ar    1  UNL1        0.0497
@<TRIPOS>BOND
     1     7     8    1
     2     8     1    1
     3     1     2   ar
     4     2     3   ar
     5     3     4   ar
     6     4     5   ar
     7     5     6   ar
     8     6    12    1
     9    12    13    1
    10    13    14   ar
    11    14    15   ar
    12    15    16   ar
    13    16    17    1
    14    16    18   ar
    15    18    19    1
    16    18    20   ar
    17     8     9    1
    18     9    10    1
    19     9    11    1
    20     6     1   ar
    21    20    13   ar
@<TRIPOS>MOLECULE
*****
 20 21 0 0 0
SMALL
GASTEIGER

@<TRIPOS>ATOM
      1 C         140.3807  139.9094  167.5774 C.ar    1  UNL1        0.0267
      2 C         138.9405  139.5836  167.8414 C.ar    1  UNL1        0.0001
      3 C         138.0762  139.0551  166.7353 C.ar    1  UNL1       -0.0001
      4 C         138.6520  138.8523  165.3651 C.ar    1  UNL1        0.0031
      5 C         140.0922  139.1781  165.1012 C.ar    1  UNL1        0.0372
      6 C         140.9565  139.7066  166.2073 C.ar    1  UNL1        0.1425
      7 C         141.7335  139.5146  169.7601 C.3     1  UNL1        0.0223
      8 C         141.2451  140.4379  168.6836 C.3     1  UNL1        0.0832
      9 N         141.6210  141.8897  168.7132 N.3     1  UNL1       -0.2678
     10 C         143.0651  142.2892  168.7837 C.3     1  UNL1        0.0899
     11 C         140.5528  142.9420  168.6723 C.3     1  UNL1        0.0899
     12 O         142.3968  140.0324  165.9433 O.3     1  UNL1       -0.4537
     13 C         142.7634  141.3259  165.2782 C.ar    1  UNL1        0.1462
     14 C         144.1714  141.5590  164.8162 C.ar    1  UNL1        0.0384
     15 C         144.5380  142.8525  164.1512 C.ar    1  UNL1        0.0154
     16 C         143.4968  143.9130  163.9481 C.ar    1  UNL1        0.0684
     17 CL        143.8634  145.2065  163.2830 Cl      1  UNL1       -0.0814
     18 C         142.0889  143.6799  164.4100 C.ar    1  UNL1        0.0712
     19 CL        141.0476  144.7403  164.2069 Cl      1  UNL1       -0.0813
     20 C         141.7222  142.3863  165.0751 C.ar    1  UNL1        0.0497
@<TRIPOS>BOND
     1     7     8    1
     2     8     1    1
     3     1     2   ar
     4     2     3   ar
     5     3     4   ar
     6     4     5   ar
     7     5     6   ar
     8     6    12    1
     9    12    13    1
    10    13    14   ar
    11    14    15   ar
    12    15    16   ar
    13    16    17    1
    14    16    18   ar
    15    18    19    1
    16    18    20   ar
    17     8     9    1
    18     9    10    1
    19     9    11    1
    20     6     1   ar
    21    20    13   ar
@<TRIPOS>MOLECULE
*****
 20 21 0 0 0
SMALL
GASTEIGER

@<TRIPOS>ATOM
      1 C         140.5976  139.0683  164.7213 C.ar    1  UNL1        0.0267
      2 C         139.9700  137.7086  164.6354 C.ar    1  UNL1        0.0001
      3 C         138.7241  137.4070  165.4143 C.ar    1  UNL1       -0.0001
      4 C         138.1058  138.4651  166.2793 C.ar    1  UNL1        0.0031
      5 C         138.7334  139.8247  166.3652 C.ar    1  UNL1        0.0372
      6 C         139.9793  140.1263  165.5863 C.ar    1  UNL1        0.1425
      7 C         141.7480  140.0494  162.6086 C.3     1  UNL1        0.0223
      8 C         141.8435  139.3699  163.9424 C.3     1  UNL1        0.0832
      9 N         143.1849  138.9919  164.4972 N.3     1  UNL1       -0.2678
     10 C         143.2834  138.3499  165.8493 C.3     1  UNL1        0.0899
     11 C         144.4278  139.2560  163.6999 C.3     1  UNL1        0.0899
     12 O         140.6069  141.4861  165.6723 O.3     1  UNL1       -0.4537
     13 C         141.2173  141.9501  166.9614 C.ar    1  UNL1        0.1462
     14 C         142.6430  141.6105  167.2813 C.ar    1  UNL1        0.0384
     15 C         143.2534  142.0746  168.5704 C.ar    1  UNL1        0.0154
     16 C         142.4383  142.8783  169.5397 C.ar    1  UNL1        0.0684
     17 CL        143.0488  143.3424  170.8289 Cl      1  UNL1       -0.0814
     18 C         141.0128  143.2180  169.2199 C.ar    1  UNL1        0.0712
     19 CL        140.1977  144.0218  170.1892 Cl      1  UNL1       -0.0813
     20 C         140.4022  142.7539  167.9307 C.ar    1  UNL1        0.0497
@<TRIPOS>BOND
     1     7     8    1
     2     8     1    1
     3     1     2   ar
     4     2     3   ar
     5     3     4   ar
     6     4     5   ar
     7     5     6   ar
     8     6    12    1
     9    12    13    1
    10    13    14   ar
    11    14    15   ar
    12    15    16   ar
    13    16    17    1
    14    16    18   ar
    15    18    19    1
    16    18    20   ar
    17     8     9    1
    18     9    10    1
    19     9    11    1
    20     6     1   ar
    21    20    13   ar
