@<TRIPOS>MOLECULE
*****
 47 52 0 0 0
SMALL
GASTEIGER

@<TRIPOS>ATOM
      1 C         143.3841  142.8161  157.9366 C.ar    1  UNL1        0.1428
      2 N         142.7734  141.7288  157.1033 N.ar    1  UNL1       -0.2121
      3 C         143.6268  140.9445  156.1510 C.ar    1  UNL1        0.1545
      4 C         145.0910  141.2477  156.0322 C.ar    1  UNL1        0.1484
      5 N         146.1748  140.6475  155.1865 N.ar    1  UNL1       -0.2180
      6 C         147.4554  141.3640  155.4972 C.ar    1  UNL1        0.2004
      7 N         147.1631  142.4070  156.5349 N.ar    1  UNL1       -0.2051
      8 C         145.7017  142.3351  156.8655 C.ar    1  UNL1        0.1640
      9 N         144.8483  143.1193  157.8177 N.ar    1  UNL1       -0.3226
     10 H         145.2492  143.8331  158.3646 H       1  UNL1        0.1688
     11 C         143.7190  142.4564  160.8961 C.3     1  UNL1        0.0324
     12 C         142.6982  143.4206  160.3685 C.ar    1  UNL1       -0.0055
     13 C         141.8448  144.2048  161.3207 C.ar    1  UNL1        0.0466
     14 C         140.8240  145.1690  160.7931 C.ar    1  UNL1        0.0144
     15 C         140.6566  145.3488  159.3134 C.ar    1  UNL1        0.0014
     16 C         141.5099  144.5646  158.3612 C.ar    1  UNL1        0.0028
     17 C         142.5307  143.6004  158.8888 C.ar    1  UNL1        0.0313
     18 N         142.0122  144.0250  162.8004 N.am    1  UNL1       -0.2806
     19 C         141.2148  142.9806  163.5240 C.2     1  UNL1        0.2495
     20 O         140.2500  142.1162  162.7678 O.2     1  UNL1       -0.2698
     21 H         142.6455  144.5923  163.2967 H       1  UNL1        0.1552
     22 C         141.3823  142.8008  165.0037 C.ar    1  UNL1        0.0537
     23 C         140.2250  143.0493  165.9252 C.ar    1  UNL1        0.0042
     24 C         140.3924  142.8695  167.4048 C.ar    1  UNL1       -0.0041
     25 C         141.7171  142.4413  167.9632 C.ar    1  UNL1       -0.0228
     26 C         142.8744  142.1929  167.0418 C.ar    1  UNL1       -0.0041
     27 C         142.7070  142.3726  165.5621 C.ar    1  UNL1        0.0042
     28 C         141.8845  142.2615  169.4430 C.3     1  UNL1        0.0189
     29 C         140.6693  143.1073  169.6832 C.3     1  UNL1        0.0044
     30 C         143.0997  141.4157  169.2027 C.3     1  UNL1        0.0044
     31 C         142.0520  142.0817  170.9227 C.3     1  UNL1        0.0044
     32 N         143.0159  139.8570  155.3177 N.pl3   1  UNL1       -0.2966
     33 H         142.5409  140.0827  154.4854 H       1  UNL1        0.1537
     34 C         143.1287  138.4259  155.7525 C.ar    1  UNL1        0.0494
     35 C         144.1367  137.5229  155.1058 C.ar    1  UNL1        0.0148
     36 C         144.2496  136.0917  155.5405 C.ar    1  UNL1        0.0058
     37 C         143.3545  135.5636  156.6220 C.ar    1  UNL1        0.0537
     38 C         142.3464  136.4667  157.2688 C.ar    1  UNL1        0.0058
     39 C         142.2335  137.8978  156.8341 C.ar    1  UNL1        0.0148
     40 C         143.4673  134.1324  157.0569 C.2     1  UNL1        0.2492
     41 O         144.2575  133.7809  158.2824 O.2     1  UNL1       -0.2699
     42 N         142.7898  133.0527  156.2661 N.am    1  UNL1       -0.2709
     43 C         141.9995  133.4043  155.0406 C.3     1  UNL1        0.1258
     44 C         141.3220  132.3246  154.2498 C.3     1  UNL1        0.1637
     45 O         141.4347  130.8934  154.6845 O.3     1  UNL1       -0.3501
     46 C         142.2250  130.5419  155.9100 C.3     1  UNL1        0.1637
     47 C         142.9025  131.6216  156.7008 C.3     1  UNL1        0.1258
@<TRIPOS>BOND
     1    11    12    1
     2    12    13   ar
     3    13    18    1
     4    18    19   am
     5    19    20    2
     6    19    22    1
     7    22    23   ar
     8    23    24   ar
     9    24    25   ar
    10    25    28    1
    11    28    29    1
    12    28    30    1
    13    28    31    1
    14    25    26   ar
    15    26    27   ar
    16    13    14   ar
    17    14    15   ar
    18    15    16   ar
    19    16    17   ar
    20    17     1    1
    21     1     2   ar
    22     2     3   ar
    23     3    32    1
    24    32    34    1
    25    34    35   ar
    26    35    36   ar
    27    36    37   ar
    28    37    40    1
    29    40    41    2
    30    40    42   am
    31    42    43    1
    32    43    44    1
    33    44    45    1
    34    45    46    1
    35    46    47    1
    36    37    38   ar
    37    38    39   ar
    38     3     4   ar
    39     4     5   ar
    40     5     6   ar
    41     6     7   ar
    42     7     8   ar
    43     8     9   ar
    44    17    12   ar
    45     9     1   ar
    46    27    22   ar
    47    39    34   ar
    48     8     4    1
    49    47    42    1
    50    18    21    1
    51    32    33    1
    52     9    10    1
@<TRIPOS>MOLECULE
*****
 47 52 0 0 0
SMALL
GASTEIGER

@<TRIPOS>ATOM
      1 C         142.6996  143.1409  159.2261 C.ar    1  UNL1        0.1428
      2 N         143.5307  143.1775  160.4741 N.ar    1  UNL1       -0.2121
      3 C         143.0327  143.9083  161.6858 C.ar    1  UNL1        0.1545
      4 C         141.7035  144.6024  161.6492 C.ar    1  UNL1        0.1484
      5 N         140.9570  145.3962  162.6801 N.ar    1  UNL1       -0.2180
      6 C         139.6645  145.8501  162.0690 C.ar    1  UNL1        0.2004
      7 N         139.6122  145.3370  160.6605 N.ar    1  UNL1       -0.2051
      8 C         140.8724  144.5658  160.4010 C.ar    1  UNL1        0.1640
      9 N         141.3705  143.8351  159.1894 N.ar    1  UNL1       -0.3226
     10 H         140.8250  143.8110  158.3702 H       1  UNL1        0.1688
     11 C         142.6168  140.1432  159.1428 C.3     1  UNL1        0.0324
     12 C         143.1563  140.9114  157.9728 C.ar    1  UNL1       -0.0055
     13 C         143.6543  140.1806  156.7612 C.ar    1  UNL1        0.0466
     14 C         144.1938  140.9487  155.5912 C.ar    1  UNL1        0.0144
     15 C         144.2352  142.4476  155.6328 C.ar    1  UNL1        0.0014
     16 C         143.7371  143.1783  156.8444 C.ar    1  UNL1        0.0028
     17 C         143.1977  142.4101  158.0144 C.ar    1  UNL1        0.0313
     18 N         143.6129  138.6818  156.7196 N.am    1  UNL1       -0.2806
     19 C         142.4396  137.9807  156.1015 C.2     1  UNL1        0.2495
     20 O         141.3077  138.7786  155.5250 O.2     1  UNL1       -0.2698
     21 H         144.3558  138.1582  157.0979 H       1  UNL1        0.1552
     22 C         142.3982  136.4819  156.0599 C.ar    1  UNL1        0.0537
     23 C         141.6052  135.7828  154.9958 C.ar    1  UNL1        0.0042
     24 C         141.5638  134.2840  154.9541 C.ar    1  UNL1       -0.0041
     25 C         142.3154  133.4842  155.9766 C.ar    1  UNL1       -0.0228
     26 C         143.1084  134.1833  157.0407 C.ar    1  UNL1       -0.0041
     27 C         143.1498  135.6822  157.0824 C.ar    1  UNL1        0.0042
     28 C         142.2740  131.9854  155.9349 C.3     1  UNL1        0.0189
     29 C         141.1325  132.0439  154.9636 C.3     1  UNL1        0.0044
     30 C         143.4154  131.9268  156.9063 C.3     1  UNL1        0.0044
     31 C         142.2326  130.4865  155.8933 C.3     1  UNL1        0.0044
     32 N         143.8639  143.9448  162.9339 N.pl3   1  UNL1       -0.2966
     33 H         144.6226  144.5685  163.0020 H       1  UNL1        0.1537
     34 C         143.5392  143.0311  164.0783 C.ar    1  UNL1        0.0494
     35 C         144.0416  143.3468  165.4559 C.ar    1  UNL1        0.0148
     36 C         143.7169  142.4331  166.6003 C.ar    1  UNL1        0.0058
     37 C         142.8898  141.2037  166.3671 C.ar    1  UNL1        0.0537
     38 C         142.3873  140.8880  164.9895 C.ar    1  UNL1        0.0058
     39 C         142.7120  141.8017  163.8451 C.ar    1  UNL1        0.0148
     40 C         142.5650  140.2899  167.5115 C.2     1  UNL1        0.2492
     41 O         143.1884  138.9275  167.5838 O.2     1  UNL1       -0.2699
     42 N         141.6168  140.7386  168.5837 N.am    1  UNL1       -0.2709
     43 C         140.9934  142.1010  168.5115 C.3     1  UNL1        0.1258
     44 C         140.0452  142.5498  169.5837 C.3     1  UNL1        0.1637
     45 O         139.7204  141.6361  170.7281 O.3     1  UNL1       -0.3501
     46 C         140.3438  140.2737  170.8003 C.3     1  UNL1        0.1637
     47 C         141.2920  139.8250  169.7281 C.3     1  UNL1        0.1258
@<TRIPOS>BOND
     1    11    12    1
     2    12    13   ar
     3    13    18    1
     4    18    19   am
     5    19    20    2
     6    19    22    1
     7    22    23   ar
     8    23    24   ar
     9    24    25   ar
    10    25    28    1
    11    28    29    1
    12    28    30    1
    13    28    31    1
    14    25    26   ar
    15    26    27   ar
    16    13    14   ar
    17    14    15   ar
    18    15    16   ar
    19    16    17   ar
    20    17     1    1
    21     1     2   ar
    22     2     3   ar
    23     3    32    1
    24    32    34    1
    25    34    35   ar
    26    35    36   ar
    27    36    37   ar
    28    37    40    1
    29    40    41    2
    30    40    42   am
    31    42    43    1
    32    43    44    1
    33    44    45    1
    34    45    46    1
    35    46    47    1
    36    37    38   ar
    37    38    39   ar
    38     3     4   ar
    39     4     5   ar
    40     5     6   ar
    41     6     7   ar
    42     7     8   ar
    43     8     9   ar
    44    17    12   ar
    45     9     1   ar
    46    27    22   ar
    47    39    34   ar
    48     8     4    1
    49    47    42    1
    50    18    21    1
    51    32    33    1
    52     9    10    1
@<TRIPOS>MOLECULE
*****
 47 52 0 0 0
SMALL
GASTEIGER

@<TRIPOS>ATOM
      1 C         138.6939  141.8366  159.3092 C.ar    1  UNL1        0.1428
      2 N         138.1109  141.3937  160.6183 N.ar    1  UNL1       -0.2121
      3 C         138.2043  142.2853  161.8210 C.ar    1  UNL1        0.1545
      4 C         138.8808  143.6198  161.7145 C.ar    1  UNL1        0.1484
      5 N         139.1234  144.7052  162.7210 N.ar    1  UNL1       -0.2180
      6 C         139.8565  145.8190  162.0339 C.ar    1  UNL1        0.2004
      7 N         140.0669  145.4219  160.6028 N.ar    1  UNL1       -0.2051
      8 C         139.4639  144.0627  160.4054 C.ar    1  UNL1        0.1640
      9 N         139.3705  143.1712  159.2027 N.ar    1  UNL1       -0.3226
     10 H         139.7532  143.4619  158.3435 H       1  UNL1        0.1688
     11 C         140.1451  139.2112  159.2717 C.3     1  UNL1        0.0324
     12 C         139.3260  139.6325  158.0877 C.ar    1  UNL1       -0.0055
     13 C         139.2326  138.7409  156.8850 C.ar    1  UNL1        0.0466
     14 C         138.4136  139.1622  155.7011 C.ar    1  UNL1        0.0144
     15 C         137.6880  140.4749  155.7198 C.ar    1  UNL1        0.0014
     16 C         137.7815  141.3663  156.9225 C.ar    1  UNL1        0.0028
     17 C         138.6005  140.9451  158.1065 C.ar    1  UNL1        0.0313
     18 N         139.9581  137.4283  156.8662 N.am    1  UNL1       -0.2806
     19 C         141.2684  137.3057  156.1463 C.2     1  UNL1        0.2495
     20 O         141.8530  138.4959  155.4451 O.2     1  UNL1       -0.2698
     21 H         139.5744  136.6471  157.3265 H       1  UNL1        0.1552
     22 C         141.9939  135.9930  156.1276 C.ar    1  UNL1        0.0537
     23 C         143.0380  135.6983  157.1636 C.ar    1  UNL1        0.0042
     24 C         143.7635  134.3857  157.1449 C.ar    1  UNL1       -0.0041
     25 C         143.4450  133.3676  156.0904 C.ar    1  UNL1       -0.0228
     26 C         142.4010  133.6622  155.0545 C.ar    1  UNL1       -0.0041
     27 C         141.6754  134.9749  155.0731 C.ar    1  UNL1        0.0042
     28 C         144.1706  132.0548  156.0718 C.3     1  UNL1        0.0189
     29 C         144.8354  132.4039  157.3703 C.3     1  UNL1        0.0044
     30 C         143.5058  131.7058  154.7733 C.3     1  UNL1        0.0044
     31 C         144.8961  130.7421  156.0532 C.3     1  UNL1        0.0044
     32 N         137.6212  141.8422  163.1301 N.pl3   1  UNL1       -0.2966
     33 H         136.6444  141.8174  163.2507 H       1  UNL1        0.1537
     34 C         138.5263  141.4369  164.2555 C.ar    1  UNL1        0.0494
     35 C         139.7634  142.2334  164.5469 C.ar    1  UNL1        0.0148
     36 C         140.6686  141.8282  165.6722 C.ar    1  UNL1        0.0058
     37 C         140.3366  140.6265  166.5062 C.ar    1  UNL1        0.0537
     38 C         139.0994  139.8299  166.2148 C.ar    1  UNL1        0.0058
     39 C         138.1942  140.2351  165.0894 C.ar    1  UNL1        0.0148
     40 C         141.2417  140.2211  167.6316 C.2     1  UNL1        0.2492
     41 O         142.3134  139.1973  167.4008 O.2     1  UNL1       -0.2699
     42 N         141.0751  140.8397  168.9880 N.am    1  UNL1       -0.2709
     43 C         140.0035  141.8635  169.2188 C.3     1  UNL1        0.1258
     44 C         139.8369  142.4821  170.5751 C.3     1  UNL1        0.1637
     45 O         140.7419  142.0769  171.7006 O.3     1  UNL1       -0.3501
     46 C         141.8135  141.0531  171.4697 C.3     1  UNL1        0.1637
     47 C         141.9802  140.4345  170.1134 C.3     1  UNL1        0.1258
@<TRIPOS>BOND
     1    11    12    1
     2    12    13   ar
     3    13    18    1
     4    18    19   am
     5    19    20    2
     6    19    22    1
     7    22    23   ar
     8    23    24   ar
     9    24    25   ar
    10    25    28    1
    11    28    29    1
    12    28    30    1
    13    28    31    1
    14    25    26   ar
    15    26    27   ar
    16    13    14   ar
    17    14    15   ar
    18    15    16   ar
    19    16    17   ar
    20    17     1    1
    21     1     2   ar
    22     2     3   ar
    23     3    32    1
    24    32    34    1
    25    34    35   ar
    26    35    36   ar
    27    36    37   ar
    28    37    40    1
    29    40    41    2
    30    40    42   am
    31    42    43    1
    32    43    44    1
    33    44    45    1
    34    45    46    1
    35    46    47    1
    36    37    38   ar
    37    38    39   ar
    38     3     4   ar
    39     4     5   ar
    40     5     6   ar
    41     6     7   ar
    42     7     8   ar
    43     8     9   ar
    44    17    12   ar
    45     9     1   ar
    46    27    22   ar
    47    39    34   ar
    48     8     4    1
    49    47    42    1
    50    18    21    1
    51    32    33    1
    52     9    10    1
@<TRIPOS>MOLECULE
*****
 47 52 0 0 0
SMALL
GASTEIGER

@<TRIPOS>ATOM
      1 C         141.4726  142.0260  166.3335 C.ar    1  UNL1        0.1428
      2 N         140.5480  141.0474  165.6723 N.ar    1  UNL1       -0.2121
      3 C         139.6297  140.2027  166.5050 C.ar    1  UNL1        0.1545
      4 C         139.6362  140.3367  167.9989 C.ar    1  UNL1        0.1484
      5 N         138.8498  139.6440  169.0721 N.ar    1  UNL1       -0.2180
      6 C         139.2884  140.1946  170.3967 C.ar    1  UNL1        0.2004
      7 N         140.3459  141.2275  170.1421 N.ar    1  UNL1       -0.2051
      8 C         140.5608  141.3153  168.6602 C.ar    1  UNL1        0.1640
      9 N         141.4790  142.1600  167.8275 N.ar    1  UNL1       -0.3226
     10 H         142.0859  142.8023  168.2615 H       1  UNL1        0.1688
     11 C         140.5000  143.2004  163.7499 C.3     1  UNL1        0.0324
     12 C         141.9046  143.4579  164.2091 C.ar    1  UNL1       -0.0055
     13 C         142.8229  144.3026  163.3764 C.ar    1  UNL1        0.0466
     14 C         144.2274  144.5601  163.8356 C.ar    1  UNL1        0.0144
     15 C         144.7137  143.9729  165.1274 C.ar    1  UNL1        0.0014
     16 C         143.7954  143.1282  165.9600 C.ar    1  UNL1        0.0028
     17 C         142.3909  142.8707  165.5008 C.ar    1  UNL1        0.0313
     18 N         142.3366  144.8897  162.0847 N.am    1  UNL1       -0.2806
     19 C         142.3296  144.0562  160.8375 C.2     1  UNL1        0.2495
     20 O         142.8089  142.6356  160.8823 O.2     1  UNL1       -0.2698
     21 H         142.0220  145.8222  162.0554 H       1  UNL1        0.1552
     22 C         141.8433  144.6435  159.5458 C.ar    1  UNL1        0.0537
     23 C         140.6062  145.4917  159.5263 C.ar    1  UNL1        0.0042
     24 C         140.1199  146.0790  158.2346 C.ar    1  UNL1       -0.0041
     25 C         140.8705  145.8181  156.9624 C.ar    1  UNL1       -0.0228
     26 C         142.1075  144.9699  156.9819 C.ar    1  UNL1       -0.0041
     27 C         142.5939  144.3826  158.2736 C.ar    1  UNL1        0.0042
     28 C         140.3840  146.4054  155.6707 C.3     1  UNL1        0.0189
     29 C         141.4750  145.6872  154.9333 C.3     1  UNL1        0.0044
     30 C         139.2930  147.1236  156.4081 C.3     1  UNL1        0.0044
     31 C         139.8976  146.9927  154.3790 C.3     1  UNL1        0.0044
     32 N         138.7051  139.2240  165.8436 N.pl3   1  UNL1       -0.2966
     33 H         138.3241  138.4790  166.3622 H       1  UNL1        0.1537
     34 C         138.3609  139.3806  164.3921 C.ar    1  UNL1        0.0494
     35 C         138.6303  138.2597  163.4323 C.ar    1  UNL1        0.0148
     36 C         138.2862  138.4162  161.9808 C.ar    1  UNL1        0.0058
     37 C         137.6726  139.6935  161.4889 C.ar    1  UNL1        0.0537
     38 C         137.4032  140.8144  162.4487 C.ar    1  UNL1        0.0058
     39 C         137.7474  140.6579  163.9002 C.ar    1  UNL1        0.0148
     40 C         137.3284  139.8501  160.0373 C.2     1  UNL1        0.2492
     41 O         135.9512  139.5073  159.5518 O.2     1  UNL1       -0.2699
     42 N         138.3616  140.3496  159.0713 N.am    1  UNL1       -0.2709
     43 C         139.7388  140.6924  159.5568 C.3     1  UNL1        0.1258
     44 C         140.7719  141.1919  158.5908 C.3     1  UNL1        0.1637
     45 O         140.4278  141.3485  157.1392 O.3     1  UNL1       -0.3501
     46 C         139.0506  141.0056  156.6537 C.3     1  UNL1        0.1637
     47 C         138.0175  140.5062  157.6197 C.3     1  UNL1        0.1258
@<TRIPOS>BOND
     1    11    12    1
     2    12    13   ar
     3    13    18    1
     4    18    19   am
     5    19    20    2
     6    19    22    1
     7    22    23   ar
     8    23    24   ar
     9    24    25   ar
    10    25    28    1
    11    28    29    1
    12    28    30    1
    13    28    31    1
    14    25    26   ar
    15    26    27   ar
    16    13    14   ar
    17    14    15   ar
    18    15    16   ar
    19    16    17   ar
    20    17     1    1
    21     1     2   ar
    22     2     3   ar
    23     3    32    1
    24    32    34    1
    25    34    35   ar
    26    35    36   ar
    27    36    37   ar
    28    37    40    1
    29    40    41    2
    30    40    42   am
    31    42    43    1
    32    43    44    1
    33    44    45    1
    34    45    46    1
    35    46    47    1
    36    37    38   ar
    37    38    39   ar
    38     3     4   ar
    39     4     5   ar
    40     5     6   ar
    41     6     7   ar
    42     7     8   ar
    43     8     9   ar
    44    17    12   ar
    45     9     1   ar
    46    27    22   ar
    47    39    34   ar
    48     8     4    1
    49    47    42    1
    50    18    21    1
    51    32    33    1
    52     9    10    1
@<TRIPOS>MOLECULE
*****
 47 52 0 0 0
SMALL
GASTEIGER

@<TRIPOS>ATOM
      1 C         140.5335  141.4850  159.1760 C.ar    1  UNL1        0.1428
      2 N         141.6925  141.7111  160.1009 N.ar    1  UNL1       -0.2121
      3 C         141.4822  142.4155  161.4085 C.ar    1  UNL1        0.1545
      4 C         140.1129  142.8937  161.7910 C.ar    1  UNL1        0.1484
      5 N         139.6037  143.6130  163.0048 N.ar    1  UNL1       -0.2180
      6 C         138.1301  143.8314  162.8299 C.ar    1  UNL1        0.2004
      7 N         137.7284  143.2471  161.5081 N.ar    1  UNL1       -0.2051
      8 C         138.9539  142.6676  160.8659 C.ar    1  UNL1        0.1640
      9 N         139.1643  141.9632  159.5584 N.ar    1  UNL1       -0.3226
     10 H         138.4036  141.8148  158.9513 H       1  UNL1        0.1688
     11 C         140.7063  138.4910  159.0956 C.3     1  UNL1        0.0324
     12 C         140.8302  139.2837  157.8282 C.ar    1  UNL1       -0.0055
     13 C         141.0404  138.5793  156.5207 C.ar    1  UNL1        0.0466
     14 C         141.1643  139.3719  155.2533 C.ar    1  UNL1        0.0144
     15 C         141.0780  140.8689  155.2934 C.ar    1  UNL1        0.0014
     16 C         140.8677  141.5732  156.6010 C.ar    1  UNL1        0.0028
     17 C         140.7438  140.7806  157.8684 C.ar    1  UNL1        0.0313
     18 N         141.1268  137.0824  156.4805 N.am    1  UNL1       -0.2806
     19 C         142.4669  136.4083  156.4718 C.2     1  UNL1        0.2495
     20 O         143.7205  137.2313  156.5033 O.2     1  UNL1       -0.2698
     21 H         140.3040  136.5422  156.4599 H       1  UNL1        0.1552
     22 C         142.5531  134.9114  156.4317 C.ar    1  UNL1        0.0537
     23 C         143.5224  134.1919  157.3222 C.ar    1  UNL1        0.0042
     24 C         143.6087  132.6950  157.2821 C.ar    1  UNL1       -0.0041
     25 C         142.7258  131.9174  156.3516 C.ar    1  UNL1       -0.0228
     26 C         141.7566  132.6369  155.4612 C.ar    1  UNL1       -0.0041
     27 C         141.6702  134.1338  155.5012 C.ar    1  UNL1        0.0042
     28 C         142.8122  130.4204  156.3116 C.3     1  UNL1        0.0189
     29 C         141.7513  130.3876  155.2518 C.3     1  UNL1        0.0044
     30 C         143.8731  130.4533  157.3714 C.3     1  UNL1        0.0044
     31 C         142.8986  128.9234  156.2716 C.3     1  UNL1        0.0044
     32 N         142.6412  142.6415  162.3335 N.pl3   1  UNL1       -0.2966
     33 H         143.4306  143.1399  162.0209 H       1  UNL1        0.1537
     34 C         142.5976  142.1082  163.7348 C.ar    1  UNL1        0.0494
     35 C         143.3554  142.8045  164.8261 C.ar    1  UNL1        0.0148
     36 C         143.3118  142.2713  166.2274 C.ar    1  UNL1        0.0058
     37 C         142.5103  141.0418  166.5375 C.ar    1  UNL1        0.0537
     38 C         141.7525  140.3456  165.4461 C.ar    1  UNL1        0.0058
     39 C         141.7961  140.8788  164.0448 C.ar    1  UNL1        0.0148
     40 C         142.4667  140.5085  167.9388 C.2     1  UNL1        0.2492
     41 O         143.1317  139.2044  168.2662 O.2     1  UNL1       -0.2699
     42 N         141.7579  141.2793  169.0128 N.am    1  UNL1       -0.2709
     43 C         141.0929  142.5833  168.6855 C.3     1  UNL1        0.1258
     44 C         140.3841  143.3542  169.7595 C.3     1  UNL1        0.1637
     45 O         140.3403  142.8210  171.1608 O.3     1  UNL1       -0.3501
     46 C         141.0054  141.5169  171.4881 C.3     1  UNL1        0.1637
     47 C         141.7141  140.7461  170.4142 C.3     1  UNL1        0.1258
@<TRIPOS>BOND
     1    11    12    1
     2    12    13   ar
     3    13    18    1
     4    18    19   am
     5    19    20    2
     6    19    22    1
     7    22    23   ar
     8    23    24   ar
     9    24    25   ar
    10    25    28    1
    11    28    29    1
    12    28    30    1
    13    28    31    1
    14    25    26   ar
    15    26    27   ar
    16    13    14   ar
    17    14    15   ar
    18    15    16   ar
    19    16    17   ar
    20    17     1    1
    21     1     2   ar
    22     2     3   ar
    23     3    32    1
    24    32    34    1
    25    34    35   ar
    26    35    36   ar
    27    36    37   ar
    28    37    40    1
    29    40    41    2
    30    40    42   am
    31    42    43    1
    32    43    44    1
    33    44    45    1
    34    45    46    1
    35    46    47    1
    36    37    38   ar
    37    38    39   ar
    38     3     4   ar
    39     4     5   ar
    40     5     6   ar
    41     6     7   ar
    42     7     8   ar
    43     8     9   ar
    44    17    12   ar
    45     9     1   ar
    46    27    22   ar
    47    39    34   ar
    48     8     4    1
    49    47    42    1
    50    18    21    1
    51    32    33    1
    52     9    10    1
@<TRIPOS>MOLECULE
*****
 47 52 0 0 0
SMALL
GASTEIGER

@<TRIPOS>ATOM
      1 C         141.0633  142.0642  166.5161 C.ar    1  UNL1        0.1428
      2 N         141.6068  140.8299  165.8597 N.ar    1  UNL1       -0.2121
      3 C         142.2924  139.7815  166.6849 C.ar    1  UNL1        0.1545
      4 C         142.4343  139.9675  168.1665 C.ar    1  UNL1        0.1484
      5 N         143.0567  139.1125  169.2303 N.ar    1  UNL1       -0.2180
      6 C         142.8977  139.8184  170.5442 C.ar    1  UNL1        0.2004
      7 N         142.1772  141.1097  170.2925 N.ar    1  UNL1       -0.2051
      8 C         141.8908  141.2018  168.8229 C.ar    1  UNL1        0.1640
      9 N         141.2053  142.2502  167.9977 N.ar    1  UNL1       -0.3226
     10 H         140.8485  143.0604  168.4286 H       1  UNL1        0.1688
     11 C         141.9690  142.5901  163.7049 C.3     1  UNL1        0.0324
     12 C         140.8306  143.3756  164.2854 C.ar    1  UNL1       -0.0055
     13 C         140.1450  144.4240  163.4602 C.ar    1  UNL1        0.0466
     14 C         139.0066  145.2095  164.0407 C.ar    1  UNL1        0.0144
     15 C         138.5537  144.9465  165.4463 C.ar    1  UNL1        0.0014
     16 C         139.2393  143.8981  166.2714 C.ar    1  UNL1        0.0028
     17 C         140.3777  143.1127  165.6909 C.ar    1  UNL1        0.0313
     18 N         140.5979  144.6870  162.0547 N.am    1  UNL1       -0.2806
     19 C         139.7957  144.1672  160.8985 C.2     1  UNL1        0.2495
     20 O         138.5407  143.3846  161.1482 O.2     1  UNL1       -0.2698
     21 H         141.4216  145.2007  161.8909 H       1  UNL1        0.1552
     22 C         140.2487  144.4302  159.4930 C.ar    1  UNL1        0.0537
     23 C         139.6558  143.6519  158.3560 C.ar    1  UNL1        0.0042
     24 C         140.1087  143.9148  156.9504 C.ar    1  UNL1       -0.0041
     25 C         141.1544  144.9560  156.6818 C.ar    1  UNL1       -0.0228
     26 C         141.7473  145.7343  157.8187 C.ar    1  UNL1       -0.0041
     27 C         141.2945  145.4714  159.2243 C.ar    1  UNL1        0.0042
     28 C         141.6073  145.2189  155.2761 C.3     1  UNL1        0.0189
     29 C         142.7282  144.2382  155.4538 C.3     1  UNL1        0.0044
     30 C         140.4864  146.1997  155.0984 C.3     1  UNL1        0.0044
     31 C         142.0601  145.4819  153.8704 C.3     1  UNL1        0.0044
     32 N         142.8359  138.5471  166.0284 N.pl3   1  UNL1       -0.2966
     33 H         143.2896  137.8610  166.5693 H       1  UNL1        0.1537
     34 C         142.6882  138.3582  164.5477 C.ar    1  UNL1        0.0494
     35 C         141.5081  137.6107  164.0011 C.ar    1  UNL1        0.0148
     36 C         141.3604  137.4218  162.5204 C.ar    1  UNL1        0.0058
     37 C         142.3927  137.9802  161.5864 C.ar    1  UNL1        0.0537
     38 C         143.5727  138.7276  162.1330 C.ar    1  UNL1        0.0058
     39 C         143.7205  138.9166  163.6137 C.ar    1  UNL1        0.0148
     40 C         142.2450  137.7913  160.1056 C.2     1  UNL1        0.2492
     41 O         143.2696  137.0039  159.3440 O.2     1  UNL1       -0.2699
     42 N         141.0725  138.3898  159.3865 N.am    1  UNL1       -0.2709
     43 C         140.0479  139.1773  160.1481 C.3     1  UNL1        0.1258
     44 C         138.8754  139.7758  159.4290 C.3     1  UNL1        0.1637
     45 O         138.7276  139.5870  157.9483 O.3     1  UNL1       -0.3501
     46 C         139.7523  138.7996  157.1867 C.3     1  UNL1        0.1637
     47 C         140.9247  138.2010  157.9058 C.3     1  UNL1        0.1258
@<TRIPOS>BOND
     1    11    12    1
     2    12    13   ar
     3    13    18    1
     4    18    19   am
     5    19    20    2
     6    19    22    1
     7    22    23   ar
     8    23    24   ar
     9    24    25   ar
    10    25    28    1
    11    28    29    1
    12    28    30    1
    13    28    31    1
    14    25    26   ar
    15    26    27   ar
    16    13    14   ar
    17    14    15   ar
    18    15    16   ar
    19    16    17   ar
    20    17     1    1
    21     1     2   ar
    22     2     3   ar
    23     3    32    1
    24    32    34    1
    25    34    35   ar
    26    35    36   ar
    27    36    37   ar
    28    37    40    1
    29    40    41    2
    30    40    42   am
    31    42    43    1
    32    43    44    1
    33    44    45    1
    34    45    46    1
    35    46    47    1
    36    37    38   ar
    37    38    39   ar
    38     3     4   ar
    39     4     5   ar
    40     5     6   ar
    41     6     7   ar
    42     7     8   ar
    43     8     9   ar
    44    17    12   ar
    45     9     1   ar
    46    27    22   ar
    47    39    34   ar
    48     8     4    1
    49    47    42    1
    50    18    21    1
    51    32    33    1
    52     9    10    1
@<TRIPOS>MOLECULE
*****
 47 52 0 0 0
SMALL
GASTEIGER

@<TRIPOS>ATOM
      1 C         142.0326  140.7939  158.9938 C.ar    1  UNL1        0.1428
      2 N         140.8743  141.1122  159.8920 N.ar    1  UNL1       -0.2121
      3 C         141.0781  141.9756  161.1015 C.ar    1  UNL1        0.1545
      4 C         142.4405  142.5208  161.4128 C.ar    1  UNL1        0.1484
      5 N         142.9424  143.3926  162.5254 N.ar    1  UNL1       -0.2180
      6 C         144.4111  143.6132  162.3147 C.ar    1  UNL1        0.2004
      7 N         144.8168  142.8777  161.0720 N.ar    1  UNL1       -0.2051
      8 C         143.5988  142.2026  160.5145 C.ar    1  UNL1        0.1640
      9 N         143.3949  141.3391  159.3050 N.ar    1  UNL1       -0.3226
     10 H         144.1552  141.1302  158.7155 H       1  UNL1        0.1688
     11 C         142.5635  137.8453  159.1488 C.3     1  UNL1        0.0324
     12 C         142.0942  138.4563  157.8618 C.ar    1  UNL1       -0.0055
     13 C         141.8904  137.5928  156.6522 C.ar    1  UNL1        0.0466
     14 C         141.4210  138.2037  155.3651 C.ar    1  UNL1        0.0144
     15 C         141.1556  139.6780  155.2876 C.ar    1  UNL1        0.0014
     16 C         141.3595  140.5414  156.4972 C.ar    1  UNL1        0.0028
     17 C         141.8288  139.9305  157.7842 C.ar    1  UNL1        0.0313
     18 N         142.1558  136.1186  156.7297 N.am    1  UNL1       -0.2806
     19 C         143.4726  135.5682  156.2679 C.2     1  UNL1        0.2495
     20 O         144.5239  136.4923  155.7286 O.2     1  UNL1       -0.2698
     21 H         141.4658  135.5121  157.0837 H       1  UNL1        0.1552
     22 C         143.7380  134.0940  156.3455 C.ar    1  UNL1        0.0537
     23 C         144.3436  133.5052  157.5851 C.ar    1  UNL1        0.0042
     24 C         144.6090  132.0310  157.6628 C.ar    1  UNL1       -0.0041
     25 C         144.2688  131.1454  156.5009 C.ar    1  UNL1       -0.0228
     26 C         143.6632  131.7341  155.2613 C.ar    1  UNL1       -0.0041
     27 C         143.3978  133.2084  155.1836 C.ar    1  UNL1        0.0042
     28 C         144.5342  129.6711  156.5786 C.3     1  UNL1        0.0189
     29 C         144.2372  129.6951  158.0486 C.3     1  UNL1        0.0044
     30 C         144.8312  129.6471  155.1084 C.3     1  UNL1        0.0044
     31 C         144.7996  128.1968  156.6562 C.3     1  UNL1        0.0044
     32 N         139.9197  142.2939  161.9997 N.pl3   1  UNL1       -0.2966
     33 H         139.1659  142.8284  161.6602 H       1  UNL1        0.1537
     34 C         139.9097  141.7976  163.4152 C.ar    1  UNL1        0.0494
     35 C         140.2832  140.3759  163.7141 C.ar    1  UNL1        0.0148
     36 C         140.2732  139.8796  165.1296 C.ar    1  UNL1        0.0058
     37 C         139.8899  140.8050  166.2461 C.ar    1  UNL1        0.0537
     38 C         139.5165  142.2267  165.9472 C.ar    1  UNL1        0.0058
     39 C         139.5264  142.7230  164.5318 C.ar    1  UNL1        0.0148
     40 C         139.8799  140.3087  167.6617 C.2     1  UNL1        0.2492
     41 O         138.7630  139.4294  168.1404 O.2     1  UNL1       -0.2699
     42 N         140.9870  140.6919  168.5985 N.am    1  UNL1       -0.2709
     43 C         142.1039  141.5712  168.1197 C.3     1  UNL1        0.1258
     44 C         143.2110  141.9544  169.0565 C.3     1  UNL1        0.1637
     45 O         143.2012  141.4583  170.4720 O.3     1  UNL1       -0.3501
     46 C         142.0842  140.5789  170.9508 C.3     1  UNL1        0.1637
     47 C         140.9772  140.1957  170.0140 C.3     1  UNL1        0.1258
@<TRIPOS>BOND
     1    11    12    1
     2    12    13   ar
     3    13    18    1
     4    18    19   am
     5    19    20    2
     6    19    22    1
     7    22    23   ar
     8    23    24   ar
     9    24    25   ar
    10    25    28    1
    11    28    29    1
    12    28    30    1
    13    28    31    1
    14    25    26   ar
    15    26    27   ar
    16    13    14   ar
    17    14    15   ar
    18    15    16   ar
    19    16    17   ar
    20    17     1    1
    21     1     2   ar
    22     2     3   ar
    23     3    32    1
    24    32    34    1
    25    34    35   ar
    26    35    36   ar
    27    36    37   ar
    28    37    40    1
    29    40    41    2
    30    40    42   am
    31    42    43    1
    32    43    44    1
    33    44    45    1
    34    45    46    1
    35    46    47    1
    36    37    38   ar
    37    38    39   ar
    38     3     4   ar
    39     4     5   ar
    40     5     6   ar
    41     6     7   ar
    42     7     8   ar
    43     8     9   ar
    44    17    12   ar
    45     9     1   ar
    46    27    22   ar
    47    39    34   ar
    48     8     4    1
    49    47    42    1
    50    18    21    1
    51    32    33    1
    52     9    10    1
@<TRIPOS>MOLECULE
*****
 47 52 0 0 0
SMALL
GASTEIGER

@<TRIPOS>ATOM
      1 C         141.0296  141.6641  158.5520 C.ar    1  UNL1        0.1428
      2 N         141.9423  140.6156  159.1153 N.ar    1  UNL1       -0.2121
      3 C         142.8373  140.9438  160.2735 C.ar    1  UNL1        0.1545
      4 C         142.8194  142.3207  160.8683 C.ar    1  UNL1        0.1484
      5 N         143.5831  142.9329  162.0050 N.ar    1  UNL1       -0.2180
      6 C         143.1423  144.3599  162.1441 C.ar    1  UNL1        0.2004
      7 N         142.1063  144.6296  161.0935 N.ar    1  UNL1       -0.2051
      8 C         141.9067  143.3693  160.3050 C.ar    1  UNL1        0.1640
      9 N         141.0118  143.0410  159.1468 N.ar    1  UNL1       -0.3226
     10 H         140.4127  143.7293  158.7771 H       1  UNL1        0.1688
     11 C         138.1665  140.9097  159.0353 C.3     1  UNL1        0.0324
     12 C         138.7031  140.9587  157.6354 C.ar    1  UNL1       -0.0055
     13 C         137.8082  140.6305  156.4772 C.ar    1  UNL1        0.0466
     14 C         138.3448  140.6795  155.0774 C.ar    1  UNL1        0.0144
     15 C         139.7764  141.0567  154.8357 C.ar    1  UNL1        0.0014
     16 C         140.6713  141.3849  155.9939 C.ar    1  UNL1        0.0028
     17 C         140.1346  141.3359  157.3938 C.ar    1  UNL1        0.0313
     18 N         136.3767  140.2533  156.7189 N.am    1  UNL1       -0.2806
     19 C         135.2768  140.9996  156.0236 C.2     1  UNL1        0.2495
     20 O         135.6085  142.1230  155.0866 O.2     1  UNL1       -0.2698
     21 H         136.1590  139.5160  157.3339 H       1  UNL1        0.1552
     22 C         133.8453  140.6223  156.2653 C.ar    1  UNL1        0.0537
     23 C         133.5123  139.5197  157.2262 C.ar    1  UNL1        0.0042
     24 C         132.0809  139.1423  157.4680 C.ar    1  UNL1       -0.0041
     25 C         130.9823  139.8676  156.7489 C.ar    1  UNL1       -0.0228
     26 C         131.3153  140.9702  155.7880 C.ar    1  UNL1       -0.0041
     27 C         132.7467  141.3476  155.5462 C.ar    1  UNL1        0.0042
     28 C         129.5508  139.4903  156.9907 C.3     1  UNL1        0.0189
     29 C         129.1444  140.2424  155.7583 C.3     1  UNL1        0.0044
     30 C         129.9573  138.7380  158.2232 C.3     1  UNL1        0.0044
     31 C         128.1193  139.1129  157.2326 C.3     1  UNL1        0.0044
     32 N         143.7500  139.8951  160.8368 N.pl3   1  UNL1       -0.2966
     33 H         144.3885  139.4309  160.2486 H       1  UNL1        0.1537
     34 C         143.6898  139.5538  162.2961 C.ar    1  UNL1        0.0494
     35 C         144.7934  139.9887  163.2142 C.ar    1  UNL1        0.0148
     36 C         144.7332  139.6475  164.6736 C.ar    1  UNL1        0.0058
     37 C         143.5695  138.8712  165.2149 C.ar    1  UNL1        0.0537
     38 C         142.4659  138.4362  164.2969 C.ar    1  UNL1        0.0058
     39 C         142.5260  138.7775  162.8375 C.ar    1  UNL1        0.0148
     40 C         143.5092  138.5298  166.6744 C.2     1  UNL1        0.2492
     41 O         144.2993  137.3714  167.2070 O.2     1  UNL1       -0.2699
     42 N         142.6588  139.3471  167.6012 N.am    1  UNL1       -0.2709
     43 C         141.8687  140.5055  167.0686 C.3     1  UNL1        0.1258
     44 C         141.0183  141.3227  167.9954 C.3     1  UNL1        0.1637
     45 O         140.9580  140.9815  169.4548 O.3     1  UNL1       -0.3501
     46 C         141.7481  139.8230  169.9874 C.3     1  UNL1        0.1637
     47 C         142.5985  139.0058  169.0606 C.3     1  UNL1        0.1258
@<TRIPOS>BOND
     1    11    12    1
     2    12    13   ar
     3    13    18    1
     4    18    19   am
     5    19    20    2
     6    19    22    1
     7    22    23   ar
     8    23    24   ar
     9    24    25   ar
    10    25    28    1
    11    28    29    1
    12    28    30    1
    13    28    31    1
    14    25    26   ar
    15    26    27   ar
    16    13    14   ar
    17    14    15   ar
    18    15    16   ar
    19    16    17   ar
    20    17     1    1
    21     1     2   ar
    22     2     3   ar
    23     3    32    1
    24    32    34    1
    25    34    35   ar
    26    35    36   ar
    27    36    37   ar
    28    37    40    1
    29    40    41    2
    30    40    42   am
    31    42    43    1
    32    43    44    1
    33    44    45    1
    34    45    46    1
    35    46    47    1
    36    37    38   ar
    37    38    39   ar
    38     3     4   ar
    39     4     5   ar
    40     5     6   ar
    41     6     7   ar
    42     7     8   ar
    43     8     9   ar
    44    17    12   ar
    45     9     1   ar
    46    27    22   ar
    47    39    34   ar
    48     8     4    1
    49    47    42    1
    50    18    21    1
    51    32    33    1
    52     9    10    1
@<TRIPOS>MOLECULE
*****
 47 52 0 0 0
SMALL
GASTEIGER

@<TRIPOS>ATOM
      1 C         140.3023  141.8208  158.0770 C.ar    1  UNL1        0.1428
      2 N         141.5808  141.1917  157.6086 N.ar    1  UNL1       -0.2121
      3 C         141.5446  140.0755  156.6070 C.ar    1  UNL1        0.1545
      4 C         140.2298  139.5886  156.0740 C.ar    1  UNL1        0.1484
      5 N         139.8831  138.5139  155.0867 N.ar    1  UNL1       -0.2180
      6 C         138.3903  138.4789  154.9449 C.ar    1  UNL1        0.2004
      7 N         137.8143  139.5319  155.8446 N.ar    1  UNL1       -0.2051
      8 C         138.9512  140.2177  156.5425 C.ar    1  UNL1        0.1640
      9 N         138.9875  141.3338  157.5440 N.ar    1  UNL1       -0.3226
     10 H         138.1483  141.7467  157.8514 H       1  UNL1        0.1688
     11 C         140.3432  141.2018  161.0122 C.3     1  UNL1        0.0324
     12 C         140.3589  142.6274  160.5460 C.ar    1  UNL1       -0.0055
     13 C         140.3951  143.7436  161.5475 C.ar    1  UNL1        0.0466
     14 C         140.4108  145.1692  161.0814 C.ar    1  UNL1        0.0144
     15 C         140.3903  145.4787  159.6138 C.ar    1  UNL1        0.0014
     16 C         140.3542  144.3626  158.6124 C.ar    1  UNL1        0.0028
     17 C         140.3384  142.9369  159.0785 C.ar    1  UNL1        0.0313
     18 N         140.4155  143.4341  163.0150 N.am    1  UNL1       -0.2806
     19 C         141.7244  143.2576  163.7262 C.2     1  UNL1        0.2495
     20 O         143.0128  143.3906  162.9697 O.2     1  UNL1       -0.2698
     21 H         139.5699  143.3468  163.5115 H       1  UNL1        0.1552
     22 C         141.7448  142.9481  165.1937 C.ar    1  UNL1        0.0537
     23 C         140.4809  143.0376  165.9967 C.ar    1  UNL1        0.0042
     24 C         140.5012  142.7281  167.4642 C.ar    1  UNL1       -0.0041
     25 C         141.7852  142.3291  168.1289 C.ar    1  UNL1       -0.0228
     26 C         143.0491  142.2396  167.3261 C.ar    1  UNL1       -0.0041
     27 C         143.0289  142.5491  165.8585 C.ar    1  UNL1        0.0042
     28 C         141.8055  142.0197  169.5965 C.3     1  UNL1        0.0189
     29 C         140.3069  142.0735  169.6286 C.3     1  UNL1        0.0044
     30 C         143.3042  141.9658  169.5645 C.3     1  UNL1        0.0044
     31 C         141.8258  141.7102  171.0641 C.3     1  UNL1        0.0044
     32 N         142.8233  139.4464  156.1386 N.pl3   1  UNL1       -0.2966
     33 H         143.5007  139.9925  155.6781 H       1  UNL1        0.1537
     34 C         143.0697  137.9854  156.3720 C.ar    1  UNL1        0.0494
     35 C         143.8178  137.1788  155.3523 C.ar    1  UNL1        0.0148
     36 C         144.0643  135.7177  155.5855 C.ar    1  UNL1        0.0058
     37 C         143.5628  135.0632  156.8385 C.ar    1  UNL1        0.0537
     38 C         142.8147  135.8698  157.8583 C.ar    1  UNL1        0.0058
     39 C         142.5682  137.3308  157.6250 C.ar    1  UNL1        0.0148
     40 C         143.8093  133.6020  157.0719 C.2     1  UNL1        0.2492
     41 O         144.9315  133.1640  157.9657 O.2     1  UNL1       -0.2699
     42 N         142.9335  132.5789  156.4115 N.am    1  UNL1       -0.2709
     43 C         141.8113  133.0169  155.5177 C.3     1  UNL1        0.1258
     44 C         140.9354  131.9938  154.8573 C.3     1  UNL1        0.1637
     45 O         141.1818  130.5327  155.0906 O.3     1  UNL1       -0.3501
     46 C         142.3040  130.0947  155.9843 C.3     1  UNL1        0.1637
     47 C         143.1798  131.1178  156.6448 C.3     1  UNL1        0.1258
@<TRIPOS>BOND
     1    11    12    1
     2    12    13   ar
     3    13    18    1
     4    18    19   am
     5    19    20    2
     6    19    22    1
     7    22    23   ar
     8    23    24   ar
     9    24    25   ar
    10    25    28    1
    11    28    29    1
    12    28    30    1
    13    28    31    1
    14    25    26   ar
    15    26    27   ar
    16    13    14   ar
    17    14    15   ar
    18    15    16   ar
    19    16    17   ar
    20    17     1    1
    21     1     2   ar
    22     2     3   ar
    23     3    32    1
    24    32    34    1
    25    34    35   ar
    26    35    36   ar
    27    36    37   ar
    28    37    40    1
    29    40    41    2
    30    40    42   am
    31    42    43    1
    32    43    44    1
    33    44    45    1
    34    45    46    1
    35    46    47    1
    36    37    38   ar
    37    38    39   ar
    38     3     4   ar
    39     4     5   ar
    40     5     6   ar
    41     6     7   ar
    42     7     8   ar
    43     8     9   ar
    44    17    12   ar
    45     9     1   ar
    46    27    22   ar
    47    39    34   ar
    48     8     4    1
    49    47    42    1
    50    18    21    1
    51    32    33    1
    52     9    10    1
