@<TRIPOS>MOLECULE
*****
 34 38 0 0 0
SMALL
GASTEIGER

@<TRIPOS>ATOM
      1 C         140.1264  140.8535  170.2599 C.3     1  UNL1        0.0438
      2 C         140.5068  141.4567  168.9402 C.3     1  UNL1        0.1398
      3 C         141.2954  142.3355  169.8652 C.3     1  UNL1        0.0438
      4 O         141.1610  142.3651  167.9418 O.3     1  UNL1       -0.4826
      5 C         140.8945  142.1852  166.4767 C.ar    1  UNL1        0.1361
      6 C         141.5487  143.0937  165.4783 C.ar    1  UNL1        0.0379
      7 C         141.2822  142.9138  164.0132 C.ar    1  UNL1        0.0178
      8 C         140.3614  141.8255  163.5464 C.ar    1  UNL1        0.0505
      9 C         139.7072  140.9170  164.5448 C.ar    1  UNL1        0.0153
     10 C         139.9738  141.0970  166.0100 C.ar    1  UNL1        0.0369
     11 C         139.3195  140.1885  167.0083 C.3     1  UNL1        0.1581
     12 C         138.9594  139.8891  165.5833 C.3     1  UNL1        0.2351
     13 O         138.0145  138.7240  165.5789 O.2     1  UNL1       -0.4478
     14 C         137.7907  138.3034  167.0012 C.2     1  UNL1        0.2770
     15 N         136.9142  137.1758  167.4596 N.pl3   1  UNL1       -0.3133
     16 N         138.5972  139.2086  167.8847 N.2     1  UNL1       -0.2202
     17 C         139.5860  140.3684  168.4734 C.3     1  UNL1        0.1141
     18 C         139.7686  140.6219  168.1949 C.3     1  UNL1        0.1501
     19 O         139.5767  140.3555  168.4877 O.3     1  UNL1       -0.3532
     20 C         139.7686  140.6219  168.1949 C.3     1  UNL1        0.1501
     21 H         136.4219  136.6355  166.8001 H       1  UNL1        0.1466
     22 H         136.8313  136.9759  168.4200 H       1  UNL1        0.1466
     23 N         140.0949  141.6456  162.0813 N.am    1  UNL1       -0.2791
     24 C         138.8572  142.2293  161.4669 C.2     1  UNL1        0.2695
     25 O         137.8860  142.9928  162.3177 O.2     1  UNL1       -0.2681
     26 H         140.7324  141.1445  161.5229 H       1  UNL1        0.1552
     27 C         138.5907  142.0494  160.0018 C.ar    1  UNL1        0.1621
     28 N         138.8284  143.1852  159.0513 N.ar    1  UNL1       -0.2361
     29 C         138.5619  143.0053  157.5861 C.ar    1  UNL1        0.1105
     30 C         138.0577  141.6897  157.0715 C.ar    1  UNL1        0.0790
     31 CL        137.7912  141.5098  155.6064 Cl      1  UNL1       -0.0805
     32 C         137.8200  140.5539  158.0220 C.ar    1  UNL1        0.0443
     33 C         138.0865  140.7338  159.4872 C.ar    1  UNL1        0.1630
     34 F         137.8487  139.5980  160.4376 F       1  UNL1       -0.2024
@<TRIPOS>BOND
     1     1     2    1
     2     2     3    1
     3     2     4    1
     4     4     5    1
     5     5     6   ar
     6     6     7   ar
     7     7     8   ar
     8     8    23    1
     9    23    24   am
    10    24    25    2
    11    24    27    1
    12    27    28   ar
    13    28    29   ar
    14    29    30   ar
    15    30    31    1
    16    30    32   ar
    17    32    33   ar
    18    33    34    1
    19     8     9   ar
    20     9    10   ar
    21    10    11    1
    22    11    12    1
    23    12    13    1
    24    13    14    1
    25    14    15    1
    26    14    16    2
    27    11    17    1
    28    17    18    1
    29    18    19    1
    30    19    20    1
    31    17     2    1
    32    10     5   ar
    33    16    11    1
    34    20    17    1
    35    33    27   ar
    36    23    26    1
    37    15    21    1
    38    15    22    1
@<TRIPOS>MOLECULE
*****
 34 38 0 0 0
SMALL
GASTEIGER

@<TRIPOS>ATOM
      1 C         140.3456  140.1794  170.7596 C.3     1  UNL1        0.0438
      2 C         140.8506  140.8694  169.5271 C.3     1  UNL1        0.1398
      3 C         141.7616  141.4723  170.5550 C.3     1  UNL1        0.0438
      4 O         141.6719  141.7688  168.6516 O.3     1  UNL1       -0.4826
      5 C         141.4069  141.8257  167.1764 C.ar    1  UNL1        0.1361
      6 C         142.2283  142.7251  166.3009 C.ar    1  UNL1        0.0379
      7 C         141.9632  142.7820  164.8256 C.ar    1  UNL1        0.0178
      8 C         140.8768  141.9394  164.2257 C.ar    1  UNL1        0.0505
      9 C         140.0555  141.0399  165.1012 C.ar    1  UNL1        0.0153
     10 C         140.3205  140.9831  166.5765 C.ar    1  UNL1        0.0369
     11 C         139.4992  140.0837  167.4520 C.3     1  UNL1        0.1581
     12 C         139.1204  140.0351  166.0013 C.3     1  UNL1        0.2351
     13 O         137.9879  139.0630  165.8503 O.2     1  UNL1       -0.4478
     14 C         137.6668  138.5110  167.2075 C.2     1  UNL1        0.2770
     15 N         136.5991  137.5048  167.5200 N.pl3   1  UNL1       -0.3133
     16 N         138.6008  139.1417  168.1974 N.2     1  UNL1       -0.2202
     17 C         139.7642  140.0268  168.9273 C.3     1  UNL1        0.1141
     18 C         139.9934  140.2778  168.6830 C.3     1  UNL1        0.1501
     19 O         139.7525  140.0140  168.9398 O.3     1  UNL1       -0.3532
     20 C         139.9934  140.2778  168.6830 C.3     1  UNL1        0.1501
     21 H         136.0334  137.1470  166.7980 H       1  UNL1        0.1466
     22 H         136.4640  137.2022  168.4470 H       1  UNL1        0.1466
     23 N         140.6118  141.9962  162.7505 N.am    1  UNL1       -0.2791
     24 C         139.8555  143.1535  162.1683 C.2     1  UNL1        0.2695
     25 O         139.3643  144.2539  163.0615 O.2     1  UNL1       -0.2681
     26 H         140.9342  141.2740  162.1642 H       1  UNL1        0.1552
     27 C         139.5905  143.2103  160.6931 C.ar    1  UNL1        0.1621
     28 N         138.6131  142.2587  160.0695 N.ar    1  UNL1       -0.2361
     29 C         138.3480  142.3155  158.5941 C.ar    1  UNL1        0.1105
     30 C         139.0604  143.3240  157.7424 C.ar    1  UNL1        0.0790
     31 CL        138.7954  143.3809  156.2671 Cl      1  UNL1       -0.0805
     32 C         140.0379  144.2757  158.3661 C.ar    1  UNL1        0.0443
     33 C         140.3029  144.2189  159.8414 C.ar    1  UNL1        0.1630
     34 F         141.2803  145.1705  160.4650 F       1  UNL1       -0.2024
@<TRIPOS>BOND
     1     1     2    1
     2     2     3    1
     3     2     4    1
     4     4     5    1
     5     5     6   ar
     6     6     7   ar
     7     7     8   ar
     8     8    23    1
     9    23    24   am
    10    24    25    2
    11    24    27    1
    12    27    28   ar
    13    28    29   ar
    14    29    30   ar
    15    30    31    1
    16    30    32   ar
    17    32    33   ar
    18    33    34    1
    19     8     9   ar
    20     9    10   ar
    21    10    11    1
    22    11    12    1
    23    12    13    1
    24    13    14    1
    25    14    15    1
    26    14    16    2
    27    11    17    1
    28    17    18    1
    29    18    19    1
    30    19    20    1
    31    17     2    1
    32    10     5   ar
    33    16    11    1
    34    20    17    1
    35    33    27   ar
    36    23    26    1
    37    15    21    1
    38    15    22    1
@<TRIPOS>MOLECULE
*****
 34 38 0 0 0
SMALL
GASTEIGER

@<TRIPOS>ATOM
      1 C         139.9694  141.0743  170.3868 C.3     1  UNL1        0.0438
      2 C         140.6035  141.3921  169.0650 C.3     1  UNL1        0.1398
      3 C         141.3961  142.2990  169.9590 C.3     1  UNL1        0.0438
      4 O         141.5128  142.0249  168.0538 O.3     1  UNL1       -0.4826
      5 C         141.4094  141.6404  166.6076 C.ar    1  UNL1        0.1361
      6 C         142.3188  142.2732  165.5964 C.ar    1  UNL1        0.0379
      7 C         142.2153  141.8887  164.1502 C.ar    1  UNL1        0.0178
      8 C         141.2024  140.8713  163.7153 C.ar    1  UNL1        0.0505
      9 C         140.2930  140.2385  164.7265 C.ar    1  UNL1        0.0153
     10 C         140.3965  140.6231  166.1727 C.ar    1  UNL1        0.0369
     11 C         139.4872  139.9903  167.1840 C.3     1  UNL1        0.1581
     12 C         139.2682  139.5082  165.7804 C.3     1  UNL1        0.2351
     13 O         138.1611  138.4964  165.8053 O.2     1  UNL1       -0.4478
     14 C         137.6958  138.3530  167.2240 C.2     1  UNL1        0.2770
     15 N         136.6029  137.4458  167.7061 N.pl3   1  UNL1       -0.3133
     16 N         138.5154  139.2763  168.0761 N.2     1  UNL1       -0.2202
     17 C         139.5906  140.3748  168.6301 C.3     1  UNL1        0.1141
     18 C         139.8443  140.5513  168.3480 C.3     1  UNL1        0.1501
     19 O         139.5776  140.3658  168.6445 O.3     1  UNL1       -0.3532
     20 C         139.8443  140.5513  168.3480 C.3     1  UNL1        0.1501
     21 H         136.1198  136.8741  167.0665 H       1  UNL1        0.1466
     22 H         136.3687  137.4220  168.6620 H       1  UNL1        0.1466
     23 N         141.0989  140.4868  162.2691 N.am    1  UNL1       -0.2791
     24 C         141.6099  139.1536  161.8091 C.2     1  UNL1        0.2695
     25 O         142.2242  138.2049  162.7953 O.2     1  UNL1       -0.2681
     26 H         140.6957  141.1095  161.6218 H       1  UNL1        0.1552
     27 C         141.5064  138.7691  160.3629 C.ar    1  UNL1        0.1621
     28 N         140.1611  138.6751  159.7063 N.ar    1  UNL1       -0.2361
     29 C         140.0575  138.2906  158.2601 C.ar    1  UNL1        0.1105
     30 C         141.2994  138.0000  157.4706 C.ar    1  UNL1        0.0790
     31 CL        141.1959  137.6155  156.0244 Cl      1  UNL1       -0.0805
     32 C         142.6448  138.0940  158.1273 C.ar    1  UNL1        0.0443
     33 C         142.7483  138.4785  159.5734 C.ar    1  UNL1        0.1630
     34 F         144.0936  138.5725  160.2300 F       1  UNL1       -0.2024
@<TRIPOS>BOND
     1     1     2    1
     2     2     3    1
     3     2     4    1
     4     4     5    1
     5     5     6   ar
     6     6     7   ar
     7     7     8   ar
     8     8    23    1
     9    23    24   am
    10    24    25    2
    11    24    27    1
    12    27    28   ar
    13    28    29   ar
    14    29    30   ar
    15    30    31    1
    16    30    32   ar
    17    32    33   ar
    18    33    34    1
    19     8     9   ar
    20     9    10   ar
    21    10    11    1
    22    11    12    1
    23    12    13    1
    24    13    14    1
    25    14    15    1
    26    14    16    2
    27    11    17    1
    28    17    18    1
    29    18    19    1
    30    19    20    1
    31    17     2    1
    32    10     5   ar
    33    16    11    1
    34    20    17    1
    35    33    27   ar
    36    23    26    1
    37    15    21    1
    38    15    22    1
@<TRIPOS>MOLECULE
*****
 34 38 0 0 0
SMALL
GASTEIGER

@<TRIPOS>ATOM
      1 C         142.2563  141.8741  167.3470 C.3     1  UNL1        0.0438
      2 C         141.4346  142.6839  166.3881 C.3     1  UNL1        0.1398
      3 C         140.4773  142.5930  167.5393 C.3     1  UNL1        0.0438
      4 O         140.2805  143.4621  165.8291 O.3     1  UNL1       -0.4826
      5 C         140.3691  144.0499  164.4520 C.ar    1  UNL1        0.1361
      6 C         139.2150  144.8281  163.8930 C.ar    1  UNL1        0.0379
      7 C         139.3036  145.4159  162.5159 C.ar    1  UNL1        0.0178
      8 C         140.5463  145.2256  161.6976 C.ar    1  UNL1        0.0505
      9 C         141.7004  144.4474  162.2566 C.ar    1  UNL1        0.0153
     10 C         141.6118  143.8596  163.6338 C.ar    1  UNL1        0.0369
     11 C         142.7659  143.0814  164.1928 C.3     1  UNL1        0.1581
     12 C         142.9987  143.6076  162.8075 C.3     1  UNL1        0.2351
     13 O         144.3708  143.1828  162.3748 O.2     1  UNL1       -0.4478
     14 C         144.9859  142.3941  163.4926 C.2     1  UNL1        0.2770
     15 N         146.3529  141.7766  163.4877 N.pl3   1  UNL1       -0.3133
     16 N         143.9941  142.3315  164.6162 N.2     1  UNL1       -0.2202
     17 C         142.6773  142.4936  165.5700 C.3     1  UNL1        0.1141
     18 C         142.3553  142.7107  165.4140 C.3     1  UNL1        0.1501
     19 O         142.6938  142.4825  165.5779 O.3     1  UNL1       -0.3532
     20 C         142.3553  142.7107  165.4140 C.3     1  UNL1        0.1501
     21 H         146.9337  141.8730  162.6987 H       1  UNL1        0.1466
     22 H         146.6692  141.2748  164.2735 H       1  UNL1        0.1466
     23 N         140.6349  145.8134  160.3205 N.am    1  UNL1       -0.2791
     24 C         140.2497  144.9899  159.1273 C.2     1  UNL1        0.2695
     25 O         139.7760  143.5786  159.3113 O.2     1  UNL1       -0.2681
     26 H         140.9458  146.7397  160.1997 H       1  UNL1        0.1552
     27 C         140.3383  145.5777  157.7501 C.ar    1  UNL1        0.1621
     28 N         139.4548  146.7279  157.3674 N.ar    1  UNL1       -0.2361
     29 C         139.5433  147.3158  155.9902 C.ar    1  UNL1        0.1105
     30 C         140.5154  146.7534  154.9958 C.ar    1  UNL1        0.0790
     31 CL        140.6040  147.3413  153.6186 Cl      1  UNL1       -0.0805
     32 C         141.3990  145.6032  155.3786 C.ar    1  UNL1        0.0443
     33 C         141.3104  145.0154  156.7557 C.ar    1  UNL1        0.1630
     34 F         142.1939  143.8653  157.1385 F       1  UNL1       -0.2024
@<TRIPOS>BOND
     1     1     2    1
     2     2     3    1
     3     2     4    1
     4     4     5    1
     5     5     6   ar
     6     6     7   ar
     7     7     8   ar
     8     8    23    1
     9    23    24   am
    10    24    25    2
    11    24    27    1
    12    27    28   ar
    13    28    29   ar
    14    29    30   ar
    15    30    31    1
    16    30    32   ar
    17    32    33   ar
    18    33    34    1
    19     8     9   ar
    20     9    10   ar
    21    10    11    1
    22    11    12    1
    23    12    13    1
    24    13    14    1
    25    14    15    1
    26    14    16    2
    27    11    17    1
    28    17    18    1
    29    18    19    1
    30    19    20    1
    31    17     2    1
    32    10     5   ar
    33    16    11    1
    34    20    17    1
    35    33    27   ar
    36    23    26    1
    37    15    21    1
    38    15    22    1
@<TRIPOS>MOLECULE
*****
 34 38 0 0 0
SMALL
GASTEIGER

@<TRIPOS>ATOM
      1 C         142.3138  141.1061  169.9326 C.3     1  UNL1        0.0438
      2 C         142.8182  141.7893  168.6960 C.3     1  UNL1        0.1398
      3 C         143.8459  142.2509  169.6863 C.3     1  UNL1        0.0438
      4 O         143.6795  142.6328  167.8035 O.3     1  UNL1       -0.4826
      5 C         143.3379  142.7774  166.3501 C.ar    1  UNL1        0.1361
      6 C         144.1992  143.6209  165.4575 C.ar    1  UNL1        0.0379
      7 C         143.8576  143.7655  164.0041 C.ar    1  UNL1        0.0178
      8 C         142.6547  143.0666  163.4433 C.ar    1  UNL1        0.0505
      9 C         141.7934  142.2231  164.3358 C.ar    1  UNL1        0.0153
     10 C         142.1350  142.0785  165.7893 C.ar    1  UNL1        0.0369
     11 C         141.2737  141.2350  166.6819 C.3     1  UNL1        0.1581
     12 C         140.8093  141.2857  165.2564 C.3     1  UNL1        0.2351
     13 O         139.5725  140.4447  165.1416 O.2     1  UNL1       -0.4478
     14 C         139.2725  139.8743  166.4960 C.2     1  UNL1        0.2770
     15 N         138.1230  138.9736  166.8384 N.pl3   1  UNL1       -0.3133
     16 N         140.3239  140.3627  167.4480 N.2     1  UNL1       -0.2202
     17 C         141.6153  141.0904  168.1352 C.3     1  UNL1        0.1141
     18 C         141.8556  141.3258  167.8862 C.3     1  UNL1        0.1501
     19 O         141.6030  141.0784  168.1480 O.3     1  UNL1       -0.3532
     20 C         141.8556  141.3258  167.8862 C.3     1  UNL1        0.1501
     21 H         137.4818  138.7068  166.1406 H       1  UNL1        0.1466
     22 H         138.0096  138.6492  167.7610 H       1  UNL1        0.1466
     23 N         142.3131  143.2112  161.9899 N.am    1  UNL1       -0.2791
     24 C         141.5247  144.3974  161.5191 C.2     1  UNL1        0.2695
     25 O         141.0780  145.4389  162.5018 O.2     1  UNL1       -0.2681
     26 H         142.6063  142.5276  161.3449 H       1  UNL1        0.1552
     27 C         141.1831  144.5420  160.0657 C.ar    1  UNL1        0.1621
     28 N         141.9977  145.4476  159.1904 N.ar    1  UNL1       -0.2361
     29 C         141.6561  145.5923  157.7369 C.ar    1  UNL1        0.1105
     30 C         140.5000  144.8312  157.1589 C.ar    1  UNL1        0.0790
     31 CL        140.1584  144.9758  155.7055 Cl      1  UNL1       -0.0805
     32 C         139.6854  143.9255  158.0343 C.ar    1  UNL1        0.0443
     33 C         140.0270  143.7809  159.4877 C.ar    1  UNL1        0.1630
     34 F         139.2125  142.8753  160.3630 F       1  UNL1       -0.2024
@<TRIPOS>BOND
     1     1     2    1
     2     2     3    1
     3     2     4    1
     4     4     5    1
     5     5     6   ar
     6     6     7   ar
     7     7     8   ar
     8     8    23    1
     9    23    24   am
    10    24    25    2
    11    24    27    1
    12    27    28   ar
    13    28    29   ar
    14    29    30   ar
    15    30    31    1
    16    30    32   ar
    17    32    33   ar
    18    33    34    1
    19     8     9   ar
    20     9    10   ar
    21    10    11    1
    22    11    12    1
    23    12    13    1
    24    13    14    1
    25    14    15    1
    26    14    16    2
    27    11    17    1
    28    17    18    1
    29    18    19    1
    30    19    20    1
    31    17     2    1
    32    10     5   ar
    33    16    11    1
    34    20    17    1
    35    33    27   ar
    36    23    26    1
    37    15    21    1
    38    15    22    1
@<TRIPOS>MOLECULE
*****
 34 38 0 0 0
SMALL
GASTEIGER

@<TRIPOS>ATOM
      1 C         140.0466  141.4895  169.9818 C.3     1  UNL1        0.0438
      2 C         139.6219  140.5565  168.8866 C.3     1  UNL1        0.1398
      3 C         138.5904  140.2267  169.9245 C.3     1  UNL1        0.0438
      4 O         138.8389  139.5090  168.1520 O.3     1  UNL1       -0.4826
      5 C         139.2349  139.1153  166.7598 C.ar    1  UNL1        0.1361
      6 C         138.4519  138.0678  166.0252 C.ar    1  UNL1        0.0379
      7 C         138.8480  137.6742  164.6330 C.ar    1  UNL1        0.0178
      8 C         140.0271  138.3280  163.9754 C.ar    1  UNL1        0.0505
      9 C         140.8100  139.3755  164.7101 C.ar    1  UNL1        0.0153
     10 C         140.4139  139.7692  166.1023 C.ar    1  UNL1        0.0369
     11 C         141.1969  140.8167  166.8370 C.3     1  UNL1        0.1581
     12 C         141.7093  140.5279  165.4570 C.3     1  UNL1        0.2351
     13 O         142.8997  141.4069  165.2111 O.2     1  UNL1       -0.4478
     14 C         143.1230  142.2389  166.4390 C.2     1  UNL1        0.2770
     15 N         144.2082  143.2569  166.6288 N.pl3   1  UNL1       -0.3133
     16 N         142.0707  141.8742  167.4439 N.2     1  UNL1       -0.2202
     17 C         140.8009  141.2103  168.2291 C.3     1  UNL1        0.1141
     18 C         140.5824  140.9181  168.0241 C.3     1  UNL1        0.1501
     19 O         140.8120  141.2253  168.2396 O.3     1  UNL1       -0.3532
     20 C         140.5824  140.9181  168.0241 C.3     1  UNL1        0.1501
     21 H         144.8555  143.4269  165.9068 H       1  UNL1        0.1466
     22 H         144.2731  143.7552  167.4754 H       1  UNL1        0.1466
     23 N         140.4231  137.9344  162.5833 N.am    1  UNL1       -0.2791
     24 C         140.2322  138.8969  161.4487 C.2     1  UNL1        0.2695
     25 O         139.6452  140.2530  161.7063 O.2     1  UNL1       -0.2681
     26 H         140.8083  137.0443  162.4142 H       1  UNL1        0.1552
     27 C         140.6282  138.5032  160.0565 C.ar    1  UNL1        0.1621
     28 N         139.5890  138.4118  158.9787 N.ar    1  UNL1       -0.2361
     29 C         139.9851  138.0181  157.5865 C.ar    1  UNL1        0.1105
     30 C         141.4203  137.7159  157.2721 C.ar    1  UNL1        0.0790
     31 CL        141.8163  137.3222  155.8800 Cl      1  UNL1       -0.0805
     32 C         142.4595  137.8074  158.3500 C.ar    1  UNL1        0.0443
     33 C         142.0634  138.2010  159.7422 C.ar    1  UNL1        0.1630
     34 F         143.1026  138.2925  160.8200 F       1  UNL1       -0.2024
@<TRIPOS>BOND
     1     1     2    1
     2     2     3    1
     3     2     4    1
     4     4     5    1
     5     5     6   ar
     6     6     7   ar
     7     7     8   ar
     8     8    23    1
     9    23    24   am
    10    24    25    2
    11    24    27    1
    12    27    28   ar
    13    28    29   ar
    14    29    30   ar
    15    30    31    1
    16    30    32   ar
    17    32    33   ar
    18    33    34    1
    19     8     9   ar
    20     9    10   ar
    21    10    11    1
    22    11    12    1
    23    12    13    1
    24    13    14    1
    25    14    15    1
    26    14    16    2
    27    11    17    1
    28    17    18    1
    29    18    19    1
    30    19    20    1
    31    17     2    1
    32    10     5   ar
    33    16    11    1
    34    20    17    1
    35    33    27   ar
    36    23    26    1
    37    15    21    1
    38    15    22    1
@<TRIPOS>MOLECULE
*****
 34 38 0 0 0
SMALL
GASTEIGER

@<TRIPOS>ATOM
      1 C         139.0732  144.3736  164.8568 C.3     1  UNL1        0.0438
      2 C         139.3032  144.2469  163.3799 C.3     1  UNL1        0.1398
      3 C         137.8062  144.3377  163.4036 C.3     1  UNL1        0.0438
      4 O         139.0133  144.1517  161.9113 O.3     1  UNL1       -0.4826
      5 C         140.1405  144.0097  160.9319 C.ar    1  UNL1        0.1361
      6 C         139.8505  143.9145  159.4633 C.ar    1  UNL1        0.0379
      7 C         140.9777  143.7725  158.4839 C.ar    1  UNL1        0.0178
      8 C         142.3950  143.7257  158.9732 C.ar    1  UNL1        0.0505
      9 C         142.6849  143.8209  160.4418 C.ar    1  UNL1        0.0153
     10 C         141.5576  143.9629  161.4212 C.ar    1  UNL1        0.0369
     11 C         141.8476  144.0581  162.8898 C.3     1  UNL1        0.1581
     12 C         143.0718  143.9198  162.0339 C.3     1  UNL1        0.2351
     13 O         144.2702  143.9177  162.9361 O.2     1  UNL1       -0.4478
     14 C         143.7868  144.0546  164.3494 C.2     1  UNL1        0.2770
     15 N         144.6492  144.0972  165.5759 N.pl3   1  UNL1       -0.3133
     16 N         142.2895  144.1414  164.3208 N.2     1  UNL1       -0.2202
     17 C         140.7204  144.2001  163.8692 C.3     1  UNL1        0.1141
     18 C         140.6395  144.1736  163.4594 C.3     1  UNL1        0.1501
     19 O         140.7245  144.2015  163.8901 O.3     1  UNL1       -0.3532
     20 C         140.6395  144.1736  163.4594 C.3     1  UNL1        0.1501
     21 H         145.6280  144.0326  165.4920 H       1  UNL1        0.1466
     22 H         144.2364  144.1898  166.4649 H       1  UNL1        0.1466
     23 N         143.5222  143.5838  157.9938 N.am    1  UNL1       -0.2791
     24 C         144.2383  142.2726  157.8594 C.2     1  UNL1        0.2695
     25 O         143.8272  141.1034  158.7044 O.2     1  UNL1       -0.2681
     26 H         143.7920  144.3511  157.4392 H       1  UNL1        0.1552
     27 C         145.3655  142.1306  156.8800 C.ar    1  UNL1        0.1621
     28 N         145.1195  141.5056  155.5389 N.ar    1  UNL1       -0.2361
     29 C         146.2467  141.3635  154.5594 C.ar    1  UNL1        0.1105
     30 C         147.6200  141.8466  154.9212 C.ar    1  UNL1        0.0790
     31 CL        148.7472  141.7046  153.9419 Cl      1  UNL1       -0.0805
     32 C         147.8660  142.4717  156.2625 C.ar    1  UNL1        0.0443
     33 C         146.7388  142.6137  157.2418 C.ar    1  UNL1        0.1630
     34 F         146.9848  143.2387  158.5830 F       1  UNL1       -0.2024
@<TRIPOS>BOND
     1     1     2    1
     2     2     3    1
     3     2     4    1
     4     4     5    1
     5     5     6   ar
     6     6     7   ar
     7     7     8   ar
     8     8    23    1
     9    23    24   am
    10    24    25    2
    11    24    27    1
    12    27    28   ar
    13    28    29   ar
    14    29    30   ar
    15    30    31    1
    16    30    32   ar
    17    32    33   ar
    18    33    34    1
    19     8     9   ar
    20     9    10   ar
    21    10    11    1
    22    11    12    1
    23    12    13    1
    24    13    14    1
    25    14    15    1
    26    14    16    2
    27    11    17    1
    28    17    18    1
    29    18    19    1
    30    19    20    1
    31    17     2    1
    32    10     5   ar
    33    16    11    1
    34    20    17    1
    35    33    27   ar
    36    23    26    1
    37    15    21    1
    38    15    22    1
@<TRIPOS>MOLECULE
*****
 34 38 0 0 0
SMALL
GASTEIGER

@<TRIPOS>ATOM
      1 C         141.5907  140.2822  170.6806 C.3     1  UNL1        0.0438
      2 C         141.1151  141.1550  169.5571 C.3     1  UNL1        0.1398
      3 C         140.3997  141.7985  170.7078 C.3     1  UNL1        0.0438
      4 O         140.3910  142.2513  168.8333 O.3     1  UNL1       -0.4826
      5 C         140.5475  142.4010  167.3491 C.ar    1  UNL1        0.1361
      6 C         139.8234  143.4972  166.6253 C.ar    1  UNL1        0.0379
      7 C         139.9799  143.6469  165.1410 C.ar    1  UNL1        0.0178
      8 C         140.8605  142.7002  164.3805 C.ar    1  UNL1        0.0505
      9 C         141.5846  141.6040  165.1042 C.ar    1  UNL1        0.0153
     10 C         141.4281  141.4543  166.5886 C.ar    1  UNL1        0.0369
     11 C         142.1522  140.3581  167.3124 C.3     1  UNL1        0.1581
     12 C         142.4048  140.3836  165.8339 C.3     1  UNL1        0.2351
     13 O         143.3436  139.2609  165.5046 O.2     1  UNL1       -0.4478
     14 C         143.6713  138.5416  166.7794 C.2     1  UNL1        0.2770
     15 N         144.5763  137.3530  166.9134 N.pl3   1  UNL1       -0.3133
     16 N         142.9350  139.2197  167.8967 N.2     1  UNL1       -0.2202
     17 C         141.9957  140.2084  168.7966 C.3     1  UNL1        0.1141
     18 C         141.7937  140.5143  168.5947 C.3     1  UNL1        0.1501
     19 O         142.0060  140.1928  168.8069 O.3     1  UNL1       -0.3532
     20 C         141.7937  140.5143  168.5947 C.3     1  UNL1        0.1501
     21 H         145.0169  136.9775  166.1171 H       1  UNL1        0.1466
     22 H         144.7298  136.9484  167.7977 H       1  UNL1        0.1466
     23 N         141.0170  142.8499  162.8962 N.am    1  UNL1       -0.2791
     24 C         141.8666  143.9535  162.3391 C.2     1  UNL1        0.2695
     25 O         142.5597  144.9074  163.2663 O.2     1  UNL1       -0.2681
     26 H         140.5621  142.2238  162.2877 H       1  UNL1        0.1552
     27 C         142.0231  144.1032  160.8549 C.ar    1  UNL1        0.1621
     28 N         142.9734  143.2152  160.1076 N.ar    1  UNL1       -0.2361
     29 C         143.1299  143.3648  158.6233 C.ar    1  UNL1        0.1105
     30 C         142.3362  144.4025  157.8863 C.ar    1  UNL1        0.0790
     31 CL        142.4927  144.5521  156.4020 Cl      1  UNL1       -0.0805
     32 C         141.3859  145.2905  158.6336 C.ar    1  UNL1        0.0443
     33 C         141.2294  145.1409  160.1178 C.ar    1  UNL1        0.1630
     34 F         140.2791  146.0289  160.8651 F       1  UNL1       -0.2024
@<TRIPOS>BOND
     1     1     2    1
     2     2     3    1
     3     2     4    1
     4     4     5    1
     5     5     6   ar
     6     6     7   ar
     7     7     8   ar
     8     8    23    1
     9    23    24   am
    10    24    25    2
    11    24    27    1
    12    27    28   ar
    13    28    29   ar
    14    29    30   ar
    15    30    31    1
    16    30    32   ar
    17    32    33   ar
    18    33    34    1
    19     8     9   ar
    20     9    10   ar
    21    10    11    1
    22    11    12    1
    23    12    13    1
    24    13    14    1
    25    14    15    1
    26    14    16    2
    27    11    17    1
    28    17    18    1
    29    18    19    1
    30    19    20    1
    31    17     2    1
    32    10     5   ar
    33    16    11    1
    34    20    17    1
    35    33    27   ar
    36    23    26    1
    37    15    21    1
    38    15    22    1
@<TRIPOS>MOLECULE
*****
 34 38 0 0 0
SMALL
GASTEIGER

@<TRIPOS>ATOM
      1 C         139.5511  140.0758  166.9700 C.3     1  UNL1        0.0438
      2 C         139.7357  141.3526  166.2045 C.3     1  UNL1        0.1398
      3 C         140.0890  141.8226  167.5844 C.3     1  UNL1        0.0438
      4 O         140.0430  142.7926  165.9184 O.3     1  UNL1       -0.4826
      5 C         139.9329  143.3191  164.5182 C.ar    1  UNL1        0.1361
      6 C         140.2402  144.7591  164.2320 C.ar    1  UNL1        0.0379
      7 C         140.1300  145.2856  162.8318 C.ar    1  UNL1        0.0178
      8 C         139.7125  144.3721  161.7177 C.ar    1  UNL1        0.0505
      9 C         139.4052  142.9320  162.0038 C.ar    1  UNL1        0.0153
     10 C         139.5154  142.4056  163.4041 C.ar    1  UNL1        0.0369
     11 C         139.2080  140.9656  163.6903 C.3     1  UNL1        0.1581
     12 C         139.0547  141.3471  162.2477 C.3     1  UNL1        0.2351
     13 O         138.6224  140.1274  161.4890 O.2     1  UNL1       -0.4478
     14 C         138.5086  138.9920  162.4627 C.2     1  UNL1        0.2770
     15 N         138.1039  137.5856  162.1337 N.pl3   1  UNL1       -0.3133
     16 N         138.8705  139.5101  163.8232 N.2     1  UNL1       -0.2202
     17 C         139.3182  140.4391  165.0905 C.3     1  UNL1        0.1141
     18 C         139.4039  140.8408  165.0107 C.3     1  UNL1        0.1501
     19 O         139.3138  140.4185  165.0946 O.3     1  UNL1       -0.3532
     20 C         139.4039  140.8408  165.0107 C.3     1  UNL1        0.1501
     21 H         137.8840  137.3410  161.2058 H       1  UNL1        0.1466
     22 H         138.0583  136.9072  162.8456 H       1  UNL1        0.1466
     23 N         139.6024  144.8986  160.3175 N.am    1  UNL1       -0.2791
     24 C         140.8378  145.0874  159.4878 C.2     1  UNL1        0.2695
     25 O         142.1832  144.7498  160.0585 O.2     1  UNL1       -0.2681
     26 H         138.7193  145.1202  159.9429 H       1  UNL1        0.1552
     27 C         140.7276  145.6139  158.0876 C.ar    1  UNL1        0.1621
     28 N         139.5967  146.5267  157.7164 N.ar    1  UNL1       -0.2361
     29 C         139.4865  147.0533  156.3161 C.ar    1  UNL1        0.1105
     30 C         140.5072  146.6670  155.2871 C.ar    1  UNL1        0.0790
     31 CL        140.3971  147.1935  153.8869 Cl      1  UNL1       -0.0805
     32 C         141.6382  145.7541  155.6584 C.ar    1  UNL1        0.0443
     33 C         141.7483  145.2276  157.0586 C.ar    1  UNL1        0.1630
     34 F         142.8792  144.3148  157.4298 F       1  UNL1       -0.2024
@<TRIPOS>BOND
     1     1     2    1
     2     2     3    1
     3     2     4    1
     4     4     5    1
     5     5     6   ar
     6     6     7   ar
     7     7     8   ar
     8     8    23    1
     9    23    24   am
    10    24    25    2
    11    24    27    1
    12    27    28   ar
    13    28    29   ar
    14    29    30   ar
    15    30    31    1
    16    30    32   ar
    17    32    33   ar
    18    33    34    1
    19     8     9   ar
    20     9    10   ar
    21    10    11    1
    22    11    12    1
    23    12    13    1
    24    13    14    1
    25    14    15    1
    26    14    16    2
    27    11    17    1
    28    17    18    1
    29    18    19    1
    30    19    20    1
    31    17     2    1
    32    10     5   ar
    33    16    11    1
    34    20    17    1
    35    33    27   ar
    36    23    26    1
    37    15    21    1
    38    15    22    1
