@<TRIPOS>MOLECULE
*****
 35 39 0 0 0
SMALL
GASTEIGER

@<TRIPOS>ATOM
      1 C         139.2925  138.0361  161.6001 C.3     1  UNL1        0.2722
      2 N         141.5870  138.5270  160.4846 N.am    1  UNL1       -0.2651
      3 C         140.0923  138.4367  160.3960 C.2     1  UNL1        0.2701
      4 O         139.3975  138.7469  159.1034 O.2     1  UNL1       -0.2707
      5 H         142.0430  138.3234  161.3330 H       1  UNL1        0.1564
      6 C         144.7863  140.1293  155.6683 C.3     1  UNL1        0.0538
      7 C         143.9865  139.7287  156.8724 C.ar    1  UNL1        0.0786
      8 C         143.7008  140.7316  157.9506 C.ar    1  UNL1        0.1150
      9 N         142.9009  140.3311  159.1547 N.ar    1  UNL1       -0.2262
     10 C         142.3868  138.9276  159.2805 C.ar    1  UNL1        0.1536
     11 C         142.6724  137.9247  158.2024 C.ar    1  UNL1        0.1328
     12 N         143.4723  138.3252  156.9982 N.ar    1  UNL1       -0.2436
     13 C         137.8422  138.4071  161.6945 C.3     1  UNL1        0.1950
     14 O         137.4236  139.8401  161.5487 O.3     1  UNL1       -0.3519
     15 C         137.9528  140.8761  162.4956 C.3     1  UNL1        0.1154
     16 C         137.3647  141.7018  163.6011 C.3     1  UNL1        0.0296
     17 C         138.7014  142.3412  163.8347 C.3     1  UNL1        0.0050
     18 C         139.2895  141.5155  162.7291 C.3     1  UNL1        0.0296
     19 O         139.9430  137.2645  162.7098 O.3     1  UNL1       -0.4517
     20 C         140.7197  137.9868  163.7706 C.ar    1  UNL1        0.2312
     21 N         142.2065  138.1366  163.6405 N.ar    1  UNL1       -0.1892
     22 C         142.9831  138.8589  164.7012 C.ar    1  UNL1        0.2029
     23 N         142.2729  139.4314  165.8920 N.ar    1  UNL1       -0.2045
     24 C         140.7861  139.2816  166.0220 C.ar    1  UNL1        0.1732
     25 C         140.0095  138.5593  164.9613 C.ar    1  UNL1        0.1099
     26 C         138.5630  138.5682  165.3587 C.ar    1  UNL1        0.1283
     27 N         138.4458  139.2960  166.6650 N.ar    1  UNL1       -0.1606
     28 N         139.8197  139.7369  167.0750 N.ar    1  UNL1       -0.1936
     29 C         140.1663  140.4993  168.3194 C.ar    1  UNL1        0.1759
     30 N         140.2245  139.7918  169.6407 N.ar    1  UNL1       -0.2242
     31 C         140.5711  140.5542  170.8851 C.ar    1  UNL1        0.1006
     32 C         140.8596  142.0242  170.8082 C.ar    1  UNL1        0.0217
     33 C         140.8014  142.7317  169.4869 C.ar    1  UNL1        0.0161
     34 C         140.4548  141.9693  168.2425 C.ar    1  UNL1        0.0935
     35 CL        140.3966  142.6769  166.9212 Cl      1  UNL1       -0.0790
@<TRIPOS>BOND
     1     6     7    1
     2     7     8   ar
     3     8     9   ar
     4     9    10   ar
     5    10     2    1
     6     2     3   am
     7     3     4    2
     8     3     1    1
     9     1    13    1
    10    13    14    1
    11    14    15    1
    12    15    16    1
    13    16    17    1
    14    17    18    1
    15     1    19    1
    16    19    20    1
    17    20    21   ar
    18    21    22   ar
    19    22    23   ar
    20    23    24   ar
    21    24    25   ar
    22    25    26   ar
    23    26    27   ar
    24    27    28   ar
    25    28    29    1
    26    29    30   ar
    27    30    31   ar
    28    31    32   ar
    29    32    33   ar
    30    33    34   ar
    31    34    35    1
    32    10    11   ar
    33    11    12   ar
    34    12     7   ar
    35    18    15    1
    36    25    20   ar
    37    34    29   ar
    38    28    24   ar
    39     2     5    1
@<TRIPOS>MOLECULE
*****
 35 39 0 0 0
SMALL
GASTEIGER

@<TRIPOS>ATOM
      1 C         141.1878  144.7074  159.8052 C.3     1  UNL1        0.2722
      2 N         139.9843  145.6370  157.6986 N.am    1  UNL1       -0.2651
      3 C         141.2162  145.5236  158.5470 C.2     1  UNL1        0.2701
      4 O         142.4763  146.2264  158.1371 O.2     1  UNL1       -0.2707
      5 H         139.1572  145.1757  157.9677 H       1  UNL1        0.1564
      6 C         140.0975  148.9017  152.6659 C.3     1  UNL1        0.0538
      7 C         140.0692  148.0855  153.9241 C.ar    1  UNL1        0.0786
      8 C         139.2269  148.5255  155.0847 C.ar    1  UNL1        0.1150
      9 N         139.1987  147.7093  156.3429 N.ar    1  UNL1       -0.2262
     10 C         140.0126  146.4531  156.4405 C.ar    1  UNL1        0.1536
     11 C         140.8548  146.0131  155.2799 C.ar    1  UNL1        0.1328
     12 N         140.8832  146.8293  154.0217 N.ar    1  UNL1       -0.2436
     13 C         139.9204  144.5980  160.5998 C.3     1  UNL1        0.1950
     14 O         139.7507  145.4009  161.8554 O.3     1  UNL1       -0.3519
     15 C         139.0008  144.8236  163.0193 C.3     1  UNL1        0.1154
     16 C         137.7275  144.0475  163.1808 C.3     1  UNL1        0.0296
     17 C         137.9403  144.0073  164.6652 C.3     1  UNL1        0.0050
     18 C         139.2137  144.7834  164.5035 C.3     1  UNL1        0.0296
     19 O         142.4270  144.0006  160.2687 O.3     1  UNL1       -0.4517
     20 C         142.7056  143.8594  161.7359 C.ar    1  UNL1        0.2312
     21 N         143.5806  144.8587  162.4327 N.ar    1  UNL1       -0.1892
     22 C         143.8591  144.7174  163.8998 C.ar    1  UNL1        0.2029
     23 N         143.2626  143.5769  164.6701 N.ar    1  UNL1       -0.2045
     24 C         142.3875  142.5776  163.9733 C.ar    1  UNL1        0.1732
     25 C         142.1090  142.7188  162.5062 C.ar    1  UNL1        0.1099
     26 C         141.2148  141.5875  162.0930 C.ar    1  UNL1        0.1283
     27 N         140.9407  140.7471  163.3049 N.ar    1  UNL1       -0.1606
     28 N         141.6655  141.3590  164.4669 N.ar    1  UNL1       -0.1936
     29 C         141.6678  140.8430  165.8753 C.ar    1  UNL1        0.1759
     30 N         140.6201  141.3039  166.8448 N.ar    1  UNL1       -0.2242
     31 C         140.6225  140.7879  168.2532 C.ar    1  UNL1        0.1006
     32 C         141.6725  139.8108  168.6922 C.ar    1  UNL1        0.0217
     33 C         142.7202  139.3498  167.7228 C.ar    1  UNL1        0.0161
     34 C         142.7178  139.8659  166.3144 C.ar    1  UNL1        0.0935
     35 CL        143.7655  139.4049  165.3450 Cl      1  UNL1       -0.0790
@<TRIPOS>BOND
     1     6     7    1
     2     7     8   ar
     3     8     9   ar
     4     9    10   ar
     5    10     2    1
     6     2     3   am
     7     3     4    2
     8     3     1    1
     9     1    13    1
    10    13    14    1
    11    14    15    1
    12    15    16    1
    13    16    17    1
    14    17    18    1
    15     1    19    1
    16    19    20    1
    17    20    21   ar
    18    21    22   ar
    19    22    23   ar
    20    23    24   ar
    21    24    25   ar
    22    25    26   ar
    23    26    27   ar
    24    27    28   ar
    25    28    29    1
    26    29    30   ar
    27    30    31   ar
    28    31    32   ar
    29    32    33   ar
    30    33    34   ar
    31    34    35    1
    32    10    11   ar
    33    11    12   ar
    34    12     7   ar
    35    18    15    1
    36    25    20   ar
    37    34    29   ar
    38    28    24   ar
    39     2     5    1
@<TRIPOS>MOLECULE
*****
 35 39 0 0 0
SMALL
GASTEIGER

@<TRIPOS>ATOM
      1 C         143.9654  140.2042  161.2170 C.3     1  UNL1        0.2722
      2 N         143.2342  142.6208  160.6044 N.am    1  UNL1       -0.2651
      3 C         143.1682  141.1424  160.3600 C.2     1  UNL1        0.2701
      4 O         142.3052  140.6020  159.2585 O.2     1  UNL1       -0.2707
      5 H         143.8007  142.9755  161.3273 H       1  UNL1        0.1564
      6 C         140.0458  146.3735  157.1764 C.3     1  UNL1        0.0538
      7 C         140.8429  145.4353  158.0334 C.ar    1  UNL1        0.0786
      8 C         142.1956  144.9716  157.5803 C.ar    1  UNL1        0.1150
      9 N         142.9927  144.0335  158.4373 N.ar    1  UNL1       -0.2262
     10 C         142.4371  143.5590  159.7474 C.ar    1  UNL1        0.1536
     11 C         141.0845  144.0227  160.2004 C.ar    1  UNL1        0.1328
     12 N         140.2873  144.9609  159.3434 N.ar    1  UNL1       -0.2436
     13 C         143.9648  138.7338  160.9207 C.3     1  UNL1        0.1950
     14 O         143.3661  137.7710  161.9029 O.3     1  UNL1       -0.3519
     15 C         141.8893  137.7886  162.1654 C.3     1  UNL1        0.1154
     16 C         141.0071  137.3419  163.2932 C.3     1  UNL1        0.0296
     17 C         139.8008  137.8135  162.5365 C.3     1  UNL1        0.0050
     18 C         140.6831  138.2602  161.4086 C.3     1  UNL1        0.0296
     19 O         144.7631  140.7365  162.3704 O.3     1  UNL1       -0.4517
     20 C         144.0625  141.3327  163.5552 C.ar    1  UNL1        0.2312
     21 N         143.7120  142.7911  163.5637 N.ar    1  UNL1       -0.1892
     22 C         143.0114  143.3872  164.7485 C.ar    1  UNL1        0.2029
     23 N         142.6613  142.5249  165.9248 N.ar    1  UNL1       -0.2045
     24 C         143.0118  141.0665  165.9164 C.ar    1  UNL1        0.1732
     25 C         143.7124  140.4704  164.7316 C.ar    1  UNL1        0.1099
     26 C         143.9291  139.0118  165.0067 C.ar    1  UNL1        0.1283
     27 N         143.3624  138.7065  166.3616 N.ar    1  UNL1       -0.1606
     28 N         142.7955  139.9763  166.9238 N.ar    1  UNL1       -0.1936
     29 C         142.1292  140.1292  168.2589 C.ar    1  UNL1        0.1759
     30 N         142.9598  140.2853  169.4981 N.ar    1  UNL1       -0.2242
     31 C         142.2935  140.4382  170.8333 C.ar    1  UNL1        0.1006
     32 C         140.7966  140.4351  170.9293 C.ar    1  UNL1        0.0217
     33 C         139.9660  140.2790  169.6901 C.ar    1  UNL1        0.0161
     34 C         140.6323  140.1261  168.3549 C.ar    1  UNL1        0.0935
     35 CL        139.8016  139.9700  167.1157 Cl      1  UNL1       -0.0790
@<TRIPOS>BOND
     1     6     7    1
     2     7     8   ar
     3     8     9   ar
     4     9    10   ar
     5    10     2    1
     6     2     3   am
     7     3     4    2
     8     3     1    1
     9     1    13    1
    10    13    14    1
    11    14    15    1
    12    15    16    1
    13    16    17    1
    14    17    18    1
    15     1    19    1
    16    19    20    1
    17    20    21   ar
    18    21    22   ar
    19    22    23   ar
    20    23    24   ar
    21    24    25   ar
    22    25    26   ar
    23    26    27   ar
    24    27    28   ar
    25    28    29    1
    26    29    30   ar
    27    30    31   ar
    28    31    32   ar
    29    32    33   ar
    30    33    34   ar
    31    34    35    1
    32    10    11   ar
    33    11    12   ar
    34    12     7   ar
    35    18    15    1
    36    25    20   ar
    37    34    29   ar
    38    28    24   ar
    39     2     5    1
@<TRIPOS>MOLECULE
*****
 35 39 0 0 0
SMALL
GASTEIGER

@<TRIPOS>ATOM
      1 C         140.4405  144.1631  160.2124 C.3     1  UNL1        0.2722
      2 N         139.6201  143.0956  157.9903 N.am    1  UNL1       -0.2651
      3 C         139.4134  143.3812  159.4483 C.2     1  UNL1        0.2701
      4 O         138.1796  142.8851  160.1422 O.2     1  UNL1       -0.2707
      5 H         140.4299  143.4213  157.5349 H       1  UNL1        0.1564
      6 C         135.5118  139.9683  154.9339 C.3     1  UNL1        0.0538
      7 C         136.5389  140.7501  155.6980 C.ar    1  UNL1        0.0786
      8 C         136.4625  142.2476  155.7409 C.ar    1  UNL1        0.1150
      9 N         137.4895  143.0294  156.5050 N.ar    1  UNL1       -0.2262
     10 C         138.5930  142.3138  157.2262 C.ar    1  UNL1        0.1536
     11 C         138.6695  140.8164  157.1834 C.ar    1  UNL1        0.1328
     12 N         137.6424  140.0345  156.4193 N.ar    1  UNL1       -0.2436
     13 C         140.1201  145.5441  160.7024 C.3     1  UNL1        0.1950
     14 O         138.9482  145.7638  161.6126 O.3     1  UNL1       -0.3519
     15 C         138.8416  144.9958  162.8967 C.3     1  UNL1        0.1154
     16 C         137.9250  143.9315  163.4230 C.3     1  UNL1        0.0296
     17 C         138.6908  143.9097  164.7126 C.3     1  UNL1        0.0050
     18 C         139.6074  144.9740  164.1863 C.3     1  UNL1        0.0296
     19 O         141.7881  143.5639  160.4864 O.3     1  UNL1       -0.4517
     20 C         142.3131  143.5091  161.8905 C.ar    1  UNL1        0.2312
     21 N         143.3801  144.4673  162.3301 N.ar    1  UNL1       -0.1892
     22 C         143.9051  144.4125  163.7341 C.ar    1  UNL1        0.2029
     23 N         143.3630  143.3996  164.6986 N.ar    1  UNL1       -0.2045
     24 C         142.2959  142.4415  164.2590 C.ar    1  UNL1        0.1732
     25 C         141.7709  142.4963  162.8549 C.ar    1  UNL1        0.1099
     26 C         140.7250  141.4309  162.7091 C.ar    1  UNL1        0.1283
     27 N         140.6036  140.7177  164.0231 N.ar    1  UNL1       -0.1606
     28 N         141.5745  141.3423  164.9810 N.ar    1  UNL1       -0.1936
     29 C         141.7866  140.9386  166.4099 C.ar    1  UNL1        0.1759
     30 N         141.2428  141.7901  167.5186 N.ar    1  UNL1       -0.2242
     31 C         141.4550  141.3864  168.9476 C.ar    1  UNL1        0.1006
     32 C         142.2110  140.1311  169.2679 C.ar    1  UNL1        0.0217
     33 C         142.7548  139.2795  168.1593 C.ar    1  UNL1        0.0161
     34 C         142.5426  139.6833  166.7303 C.ar    1  UNL1        0.0935
     35 CL        143.0865  138.8317  165.6217 Cl      1  UNL1       -0.0790
@<TRIPOS>BOND
     1     6     7    1
     2     7     8   ar
     3     8     9   ar
     4     9    10   ar
     5    10     2    1
     6     2     3   am
     7     3     4    2
     8     3     1    1
     9     1    13    1
    10    13    14    1
    11    14    15    1
    12    15    16    1
    13    16    17    1
    14    17    18    1
    15     1    19    1
    16    19    20    1
    17    20    21   ar
    18    21    22   ar
    19    22    23   ar
    20    23    24   ar
    21    24    25   ar
    22    25    26   ar
    23    26    27   ar
    24    27    28   ar
    25    28    29    1
    26    29    30   ar
    27    30    31   ar
    28    31    32   ar
    29    32    33   ar
    30    33    34   ar
    31    34    35    1
    32    10    11   ar
    33    11    12   ar
    34    12     7   ar
    35    18    15    1
    36    25    20   ar
    37    34    29   ar
    38    28    24   ar
    39     2     5    1
@<TRIPOS>MOLECULE
*****
 35 39 0 0 0
SMALL
GASTEIGER

@<TRIPOS>ATOM
      1 C         137.7342  140.8223  161.6107 C.3     1  UNL1        0.2722
      2 N         138.7357  143.0478  160.7194 N.am    1  UNL1       -0.2651
      3 C         138.5966  141.5571  160.6275 C.2     1  UNL1        0.2701
      4 O         139.3198  140.8012  159.5526 O.2     1  UNL1       -0.2707
      5 H         138.2610  143.5439  161.4249 H       1  UNL1        0.1564
      6 C         142.1848  145.9871  156.7870 C.3     1  UNL1        0.0538
      7 C         141.3226  145.2523  157.7701 C.ar    1  UNL1        0.0786
      8 C         140.0682  144.5727  157.3064 C.ar    1  UNL1        0.1150
      9 N         139.2060  143.8379  158.2895 N.ar    1  UNL1       -0.2262
     10 C         139.5979  143.7826  159.7363 C.ar    1  UNL1        0.1536
     11 C         140.8522  144.4621  160.2000 C.ar    1  UNL1        0.1328
     12 N         141.7145  145.1969  159.2169 N.ar    1  UNL1       -0.2436
     13 C         137.5533  139.3384  161.4872 C.3     1  UNL1        0.1950
     14 O         138.7270  138.4645  161.1577 O.3     1  UNL1       -0.3519
     15 C         139.6457  137.9997  162.2486 C.3     1  UNL1        0.1154
     16 C         141.1317  137.9915  162.4521 C.3     1  UNL1        0.0296
     17 C         140.9448  137.3424  163.7914 C.3     1  UNL1        0.0050
     18 C         139.4587  137.3506  163.5879 C.3     1  UNL1        0.0296
     19 O         137.0529  141.5715  162.7173 O.3     1  UNL1       -0.4517
     20 C         137.8641  142.3803  163.6858 C.ar    1  UNL1        0.2312
     21 N         137.9362  143.8715  163.5417 N.ar    1  UNL1       -0.1892
     22 C         138.7473  144.6803  164.5102 C.ar    1  UNL1        0.2029
     23 N         139.4864  143.9977  165.6227 N.ar    1  UNL1       -0.2045
     24 C         139.4144  142.5064  165.7668 C.ar    1  UNL1        0.1732
     25 C         138.6032  141.6977  164.7984 C.ar    1  UNL1        0.1099
     26 C         138.7188  140.2540  165.1891 C.ar    1  UNL1        0.1283
     27 N         139.6014  140.1706  166.3990 N.ar    1  UNL1       -0.1606
     28 N         140.0313  141.5626  166.7561 N.ar    1  UNL1       -0.1936
     29 C         140.9218  141.9439  167.9013 C.ar    1  UNL1        0.1759
     30 N         140.3237  142.3024  169.2294 N.ar    1  UNL1       -0.2242
     31 C         141.2141  142.6837  170.3746 C.ar    1  UNL1        0.1006
     32 C         142.7028  142.7066  170.1919 C.ar    1  UNL1        0.0217
     33 C         143.3009  142.3481  168.8639 C.ar    1  UNL1        0.0161
     34 C         142.4104  141.9668  167.7186 C.ar    1  UNL1        0.0935
     35 CL        143.0086  141.6083  166.3906 Cl      1  UNL1       -0.0790
@<TRIPOS>BOND
     1     6     7    1
     2     7     8   ar
     3     8     9   ar
     4     9    10   ar
     5    10     2    1
     6     2     3   am
     7     3     4    2
     8     3     1    1
     9     1    13    1
    10    13    14    1
    11    14    15    1
    12    15    16    1
    13    16    17    1
    14    17    18    1
    15     1    19    1
    16    19    20    1
    17    20    21   ar
    18    21    22   ar
    19    22    23   ar
    20    23    24   ar
    21    24    25   ar
    22    25    26   ar
    23    26    27   ar
    24    27    28   ar
    25    28    29    1
    26    29    30   ar
    27    30    31   ar
    28    31    32   ar
    29    32    33   ar
    30    33    34   ar
    31    34    35    1
    32    10    11   ar
    33    11    12   ar
    34    12     7   ar
    35    18    15    1
    36    25    20   ar
    37    34    29   ar
    38    28    24   ar
    39     2     5    1
@<TRIPOS>MOLECULE
*****
 35 39 0 0 0
SMALL
GASTEIGER

@<TRIPOS>ATOM
      1 C         141.7225  144.3803  161.3146 C.3     1  UNL1        0.2722
      2 N         142.2804  145.1087  158.8839 N.am    1  UNL1       -0.2651
      3 C         141.3354  144.4874  159.8693 C.2     1  UNL1        0.2701
      4 O         140.0035  143.9732  159.4095 O.2     1  UNL1       -0.2707
      5 H         143.1546  145.4462  159.1857 H       1  UNL1        0.1564
      6 C         140.7325  145.5369  153.1029 C.3     1  UNL1        0.0538
      7 C         141.1194  145.4298  154.5481 C.ar    1  UNL1        0.0786
      8 C         140.5497  146.3897  155.5502 C.ar    1  UNL1        0.1150
      9 N         140.9367  146.2826  156.9954 N.ar    1  UNL1       -0.2262
     10 C         141.8934  145.2157  157.4386 C.ar    1  UNL1        0.1536
     11 C         142.4631  144.2559  156.4366 C.ar    1  UNL1        0.1328
     12 N         142.0762  144.3629  154.9913 N.ar    1  UNL1       -0.2436
     13 C         141.2064  145.3813  162.3054 C.3     1  UNL1        0.1950
     14 O         139.7336  145.6479  162.4043 O.3     1  UNL1       -0.3519
     15 C         138.8973  144.8834  163.3873 C.3     1  UNL1        0.1154
     16 C         138.8693  144.7541  164.8813 C.3     1  UNL1        0.0296
     17 C         137.7147  143.8022  164.7774 C.3     1  UNL1        0.0050
     18 C         137.7427  143.9315  163.2832 C.3     1  UNL1        0.0296
     19 O         142.6256  143.2723  161.7690 O.3     1  UNL1       -0.4517
     20 C         142.9353  143.1076  163.2275 C.ar    1  UNL1        0.2312
     21 N         144.1720  143.7284  163.8064 N.ar    1  UNL1       -0.1892
     22 C         144.4816  143.5637  165.2648 C.ar    1  UNL1        0.2029
     23 N         143.5546  142.7781  166.1443 N.ar    1  UNL1       -0.2045
     24 C         142.3179  142.1573  165.5654 C.ar    1  UNL1        0.1732
     25 C         142.0083  142.3220  164.1070 C.ar    1  UNL1        0.1099
     26 C         140.7245  141.6006  163.8213 C.ar    1  UNL1        0.1283
     27 N         140.2407  140.9901  165.1031 N.ar    1  UNL1       -0.1606
     28 N         141.2255  141.3341  166.1810 N.ar    1  UNL1       -0.1936
     29 C         141.1340  140.9266  167.6217 C.ar    1  UNL1        0.1759
     30 N         140.1823  141.6320  168.5417 N.ar    1  UNL1       -0.2242
     31 C         140.0907  141.2244  169.9824 C.ar    1  UNL1        0.1006
     32 C         140.9509  140.1113  170.5031 C.ar    1  UNL1        0.0217
     33 C         141.9026  139.4059  169.5830 C.ar    1  UNL1        0.0161
     34 C         141.9942  139.8135  168.1424 C.ar    1  UNL1        0.0935
     35 CL        142.9459  139.1080  167.2224 Cl      1  UNL1       -0.0790
@<TRIPOS>BOND
     1     6     7    1
     2     7     8   ar
     3     8     9   ar
     4     9    10   ar
     5    10     2    1
     6     2     3   am
     7     3     4    2
     8     3     1    1
     9     1    13    1
    10    13    14    1
    11    14    15    1
    12    15    16    1
    13    16    17    1
    14    17    18    1
    15     1    19    1
    16    19    20    1
    17    20    21   ar
    18    21    22   ar
    19    22    23   ar
    20    23    24   ar
    21    24    25   ar
    22    25    26   ar
    23    26    27   ar
    24    27    28   ar
    25    28    29    1
    26    29    30   ar
    27    30    31   ar
    28    31    32   ar
    29    32    33   ar
    30    33    34   ar
    31    34    35    1
    32    10    11   ar
    33    11    12   ar
    34    12     7   ar
    35    18    15    1
    36    25    20   ar
    37    34    29   ar
    38    28    24   ar
    39     2     5    1
@<TRIPOS>MOLECULE
*****
 35 39 0 0 0
SMALL
GASTEIGER

@<TRIPOS>ATOM
      1 C         141.6312  138.4082  161.0266 C.3     1  UNL1        0.2722
      2 N         142.5016  140.1241  159.2807 N.am    1  UNL1       -0.2651
      3 C         142.7663  139.0175  160.2582 C.2     1  UNL1        0.2701
      4 O         144.1659  138.5202  160.4672 O.2     1  UNL1       -0.2707
      5 H         141.5830  140.4505  159.1435 H       1  UNL1        0.1564
      6 C         147.0416  142.5615  156.2071 C.3     1  UNL1        0.0538
      7 C         145.9067  141.9522  156.9755 C.ar    1  UNL1        0.0786
      8 C         145.3228  140.6415  156.5379 C.ar    1  UNL1        0.1150
      9 N         144.1878  140.0322  157.3063 N.ar    1  UNL1       -0.2262
     10 C         143.6366  140.7334  158.5123 C.ar    1  UNL1        0.1536
     11 C         144.2204  142.0440  158.9499 C.ar    1  UNL1        0.1328
     12 N         145.3555  142.6534  158.1815 N.ar    1  UNL1       -0.2436
     13 C         140.2313  138.5001  160.4957 C.3     1  UNL1        0.1950
     14 O         139.5266  139.8238  160.4641 O.3     1  UNL1       -0.3519
     15 C         139.0458  140.4482  161.7405 C.3     1  UNL1        0.1154
     16 C         137.8028  140.3378  162.5727 C.3     1  UNL1        0.0296
     17 C         138.3659  141.3312  163.5455 C.3     1  UNL1        0.0050
     18 C         139.6089  141.4415  162.7132 C.3     1  UNL1        0.0296
     19 O         141.8961  137.7070  162.3259 O.3     1  UNL1       -0.4517
     20 C         141.2083  138.1635  163.5783 C.ar    1  UNL1        0.2312
     21 N         139.8743  137.5892  163.9534 N.ar    1  UNL1       -0.1892
     22 C         139.1866  138.0457  165.2058 C.ar    1  UNL1        0.2029
     23 N         139.8328  139.0766  166.0831 N.ar    1  UNL1       -0.2045
     24 C         141.1668  139.6509  165.7081 C.ar    1  UNL1        0.1732
     25 C         141.8545  139.1943  164.4557 C.ar    1  UNL1        0.1099
     26 C         143.1544  139.9346  164.3444 C.ar    1  UNL1        0.1283
     27 N         143.2700  140.8487  165.5281 N.ar    1  UNL1       -0.1606
     28 N         142.0416  140.6733  166.3709 N.ar    1  UNL1       -0.1936
     29 C         141.7408  141.3939  167.6516 C.ar    1  UNL1        0.1759
     30 N         142.3946  140.9575  168.9291 N.ar    1  UNL1       -0.2242
     31 C         142.0937  141.6781  170.2099 C.ar    1  UNL1        0.1006
     32 C         141.1391  142.8351  170.2131 C.ar    1  UNL1        0.0217
     33 C         140.4853  143.2714  168.9356 C.ar    1  UNL1        0.0161
     34 C         140.7861  142.5509  167.6549 C.ar    1  UNL1        0.0935
     35 CL        140.1322  142.9873  166.3774 Cl      1  UNL1       -0.0790
@<TRIPOS>BOND
     1     6     7    1
     2     7     8   ar
     3     8     9   ar
     4     9    10   ar
     5    10     2    1
     6     2     3   am
     7     3     4    2
     8     3     1    1
     9     1    13    1
    10    13    14    1
    11    14    15    1
    12    15    16    1
    13    16    17    1
    14    17    18    1
    15     1    19    1
    16    19    20    1
    17    20    21   ar
    18    21    22   ar
    19    22    23   ar
    20    23    24   ar
    21    24    25   ar
    22    25    26   ar
    23    26    27   ar
    24    27    28   ar
    25    28    29    1
    26    29    30   ar
    27    30    31   ar
    28    31    32   ar
    29    32    33   ar
    30    33    34   ar
    31    34    35    1
    32    10    11   ar
    33    11    12   ar
    34    12     7   ar
    35    18    15    1
    36    25    20   ar
    37    34    29   ar
    38    28    24   ar
    39     2     5    1
@<TRIPOS>MOLECULE
*****
 35 39 0 0 0
SMALL
GASTEIGER

@<TRIPOS>ATOM
      1 C         142.7323  141.6934  160.1848 C.3     1  UNL1        0.2722
      2 N         144.4475  142.6351  158.4756 N.am    1  UNL1       -0.2651
      3 C         143.8141  141.4665  159.1707 C.2     1  UNL1        0.2701
      4 O         144.2624  140.0711  158.8518 O.2     1  UNL1       -0.2707
      5 H         144.1532  143.5510  158.6850 H       1  UNL1        0.1564
      6 C         148.7745  141.7279  154.4194 C.3     1  UNL1        0.0538
      7 C         147.6928  141.9547  155.4334 C.ar    1  UNL1        0.0786
      8 C         146.2955  141.4838  155.1576 C.ar    1  UNL1        0.1150
      9 N         145.2138  141.7106  156.1717 N.ar    1  UNL1       -0.2262
     10 C         145.5292  142.4083  157.4616 C.ar    1  UNL1        0.1536
     11 C         146.9264  142.8791  157.7374 C.ar    1  UNL1        0.1328
     12 N         148.0083  142.6523  156.7233 N.ar    1  UNL1       -0.2436
     13 C         142.2884  143.0891  160.5084 C.3     1  UNL1        0.1950
     14 O         143.2217  144.0287  161.2128 O.3     1  UNL1       -0.3519
     15 C         143.6213  143.7635  162.6342 C.3     1  UNL1        0.1154
     16 C         143.1157  144.2002  163.9771 C.3     1  UNL1        0.0296
     17 C         144.1863  143.3886  164.6442 C.3     1  UNL1        0.0050
     18 C         144.6919  142.9519  163.3012 C.3     1  UNL1        0.0296
     19 O         142.0945  140.5244  160.8753 O.3     1  UNL1       -0.4517
     20 C         142.2935  140.3236  162.3485 C.ar    1  UNL1        0.2312
     21 N         143.4609  139.5236  162.8454 N.ar    1  UNL1       -0.1892
     22 C         143.6598  139.3228  164.3185 C.ar    1  UNL1        0.2029
     23 N         142.6913  139.9221  165.2947 N.ar    1  UNL1       -0.2045
     24 C         141.5239  140.7221  164.7978 C.ar    1  UNL1        0.1732
     25 C         141.3250  140.9229  163.3247 C.ar    1  UNL1        0.1099
     26 C         140.0906  141.7533  163.1325 C.ar    1  UNL1        0.1283
     27 N         139.5268  142.0658  164.4869 N.ar    1  UNL1       -0.1606
     28 N         140.4126  141.4284  165.5161 N.ar    1  UNL1       -0.1936
     29 C         140.2207  141.4871  167.0026 C.ar    1  UNL1        0.1759
     30 N         140.7105  142.6755  167.7757 N.ar    1  UNL1       -0.2242
     31 C         140.5187  142.7342  169.2622 C.ar    1  UNL1        0.1006
     32 C         139.8370  141.6045  169.9757 C.ar    1  UNL1        0.0217
     33 C         139.3472  140.4161  169.2025 C.ar    1  UNL1        0.0161
     34 C         139.5390  140.3574  167.7160 C.ar    1  UNL1        0.0935
     35 CL        139.0492  139.1690  166.9429 Cl      1  UNL1       -0.0790
@<TRIPOS>BOND
     1     6     7    1
     2     7     8   ar
     3     8     9   ar
     4     9    10   ar
     5    10     2    1
     6     2     3   am
     7     3     4    2
     8     3     1    1
     9     1    13    1
    10    13    14    1
    11    14    15    1
    12    15    16    1
    13    16    17    1
    14    17    18    1
    15     1    19    1
    16    19    20    1
    17    20    21   ar
    18    21    22   ar
    19    22    23   ar
    20    23    24   ar
    21    24    25   ar
    22    25    26   ar
    23    26    27   ar
    24    27    28   ar
    25    28    29    1
    26    29    30   ar
    27    30    31   ar
    28    31    32   ar
    29    32    33   ar
    30    33    34   ar
    31    34    35    1
    32    10    11   ar
    33    11    12   ar
    34    12     7   ar
    35    18    15    1
    36    25    20   ar
    37    34    29   ar
    38    28    24   ar
    39     2     5    1
@<TRIPOS>MOLECULE
*****
 35 39 0 0 0
SMALL
GASTEIGER

@<TRIPOS>ATOM
      1 C         139.5986  141.8116  160.8653 C.3     1  UNL1        0.2722
      2 N         138.9687  141.7409  158.3457 N.am    1  UNL1       -0.2651
      3 C         138.7654  141.2535  159.7497 C.2     1  UNL1        0.2701
      4 O         137.7291  140.2082  160.0381 O.2     1  UNL1       -0.2707
      5 H         139.6489  142.4270  158.1564 H       1  UNL1        0.1564
      6 C         135.6363  139.5089  153.8833 C.3     1  UNL1        0.0538
      7 C         136.4694  140.0669  154.9989 C.ar    1  UNL1        0.0786
      8 C         136.0533  141.3349  155.6839 C.ar    1  UNL1        0.1150
      9 N         136.8864  141.8928  156.7995 N.ar    1  UNL1       -0.2262
     10 C         138.1356  141.1829  157.2301 C.ar    1  UNL1        0.1536
     11 C         138.5517  139.9150  156.5452 C.ar    1  UNL1        0.1328
     12 N         137.7186  139.3569  155.4295 N.ar    1  UNL1       -0.2436
     13 C         139.6696  143.2945  161.0789 C.3     1  UNL1        0.1950
     14 O         138.5535  144.0048  161.7860 O.3     1  UNL1       -0.3519
     15 C         138.6167  144.2099  163.2706 C.3     1  UNL1        0.1154
     16 C         137.8208  143.7201  164.4438 C.3     1  UNL1        0.0296
     17 C         138.7060  144.5000  165.3701 C.3     1  UNL1        0.0050
     18 C         139.5020  144.9899  164.1968 C.3     1  UNL1        0.0296
     19 O         140.3607  140.8865  161.7673 O.3     1  UNL1       -0.4517
     20 C         139.9051  140.6728  163.1804 C.ar    1  UNL1        0.2312
     21 N         138.6970  139.8286  163.4593 N.ar    1  UNL1       -0.1892
     22 C         138.2415  139.6150  164.8724 C.ar    1  UNL1        0.2029
     23 N         138.9939  140.2455  166.0065 N.ar    1  UNL1       -0.2045
     24 C         140.2019  141.0898  165.7275 C.ar    1  UNL1        0.1732
     25 C         140.6575  141.3034  164.3145 C.ar    1  UNL1        0.1099
     26 C         141.8749  142.1793  164.3473 C.ar    1  UNL1        0.1283
     27 N         142.1716  142.5070  165.7806 N.ar    1  UNL1       -0.1606
     28 N         141.1377  141.8336  166.6337 N.ar    1  UNL1       -0.1936
     29 C         141.0541  141.8935  168.1301 C.ar    1  UNL1        0.1759
     30 N         140.3814  143.0560  168.7979 N.ar    1  UNL1       -0.2242
     31 C         140.2978  143.1159  170.2943 C.ar    1  UNL1        0.1006
     32 C         140.8871  142.0133  171.1231 C.ar    1  UNL1        0.0217
     33 C         141.5599  140.8508  170.4554 C.ar    1  UNL1        0.0161
     34 C         141.6434  140.7908  168.9589 C.ar    1  UNL1        0.0935
     35 CL        142.3162  139.6283  168.2913 Cl      1  UNL1       -0.0790
@<TRIPOS>BOND
     1     6     7    1
     2     7     8   ar
     3     8     9   ar
     4     9    10   ar
     5    10     2    1
     6     2     3   am
     7     3     4    2
     8     3     1    1
     9     1    13    1
    10    13    14    1
    11    14    15    1
    12    15    16    1
    13    16    17    1
    14    17    18    1
    15     1    19    1
    16    19    20    1
    17    20    21   ar
    18    21    22   ar
    19    22    23   ar
    20    23    24   ar
    21    24    25   ar
    22    25    26   ar
    23    26    27   ar
    24    27    28   ar
    25    28    29    1
    26    29    30   ar
    27    30    31   ar
    28    31    32   ar
    29    32    33   ar
    30    33    34   ar
    31    34    35    1
    32    10    11   ar
    33    11    12   ar
    34    12     7   ar
    35    18    15    1
    36    25    20   ar
    37    34    29   ar
    38    28    24   ar
    39     2     5    1
