@<TRIPOS>MOLECULE
*****
 21 23 0 0 0
SMALL
GASTEIGER

@<TRIPOS>ATOM
      1 C         140.4864  140.4548  166.5488 C.ar    1  UNL1        0.0557
      2 C         139.1702  139.7775  166.3062 C.ar    1  UNL1        0.1784
      3 O         138.1691  140.3953  165.3755 O.2     1  UNL1       -0.4505
      4 C         138.4843  141.6904  164.6874 C.ar    1  UNL1        0.1485
      5 C         137.4832  142.3081  163.7567 C.ar    1  UNL1        0.0385
      6 C         137.7984  143.6032  163.0686 C.ar    1  UNL1        0.0145
      7 C         139.1146  144.2804  163.3112 C.ar    1  UNL1        0.0580
      8 CL        139.4297  145.5755  162.6230 Cl      1  UNL1       -0.0822
      9 C         140.1156  143.6627  164.2418 C.ar    1  UNL1        0.0176
     10 C         139.8005  142.3677  164.9299 C.ar    1  UNL1        0.0741
     11 C         140.8016  141.7498  165.8607 C.ar    1  UNL1        0.1976
     12 O         142.1178  142.4271  166.1033 O.2     1  UNL1       -0.2867
     13 C         141.4875  139.8370  167.4795 C.3     1  UNL1        0.0533
     14 O         140.4252  142.2505  172.0542 O.2     1  UNL1       -0.2625
     15 C         140.9805  141.2934  171.0415 C.2     1  UNL1        0.2792
     16 N         141.8994  140.1427  171.3269 N.am    1  UNL1       -0.2460
     17 C         142.2012  139.4571  170.0274 C.2     1  UNL1        0.2392
     18 O         143.0809  138.2555  169.8479 O.2     1  UNL1       -0.2737
     19 C         141.4688  140.1840  168.9387 C.3     1  UNL1        0.1371
     20 S         140.7143  141.3190  169.5655 S.3     1  UNL1       -0.0482
     21 H         142.2440  139.8831  172.2119 H       1  UNL1        0.1583
@<TRIPOS>BOND
     1    14    15    2
     2    15    16   am
     3    16    17   am
     4    17    18    2
     5    17    19    1
     6    19    13    1
     7    13     1    1
     8     1     2   ar
     9     2     3   ar
    10     3     4   ar
    11     4     5   ar
    12     5     6   ar
    13     6     7   ar
    14     7     8    1
    15     7     9   ar
    16     9    10   ar
    17    10    11   ar
    18    11    12    2
    19    19    20    1
    20    20    15    1
    21    11     1   ar
    22    10     4   ar
    23    16    21    1
@<TRIPOS>MOLECULE
*****
 21 23 0 0 0
SMALL
GASTEIGER

@<TRIPOS>ATOM
      1 C         142.0086  139.8936  166.6604 C.ar    1  UNL1        0.0557
      2 C         142.9977  138.8119  166.3419 C.ar    1  UNL1        0.1784
      3 O         144.0814  139.0593  165.3347 O.2     1  UNL1       -0.4505
      4 C         144.1759  140.3885  164.6459 C.ar    1  UNL1        0.1485
      5 C         145.2595  140.6358  163.6387 C.ar    1  UNL1        0.0385
      6 C         145.3540  141.9650  162.9500 C.ar    1  UNL1        0.0145
      7 C         144.3649  143.0467  163.2684 C.ar    1  UNL1        0.0580
      8 CL        144.4594  144.3759  162.5796 Cl      1  UNL1       -0.0822
      9 C         143.2813  142.7994  164.2756 C.ar    1  UNL1        0.0176
     10 C         143.1868  141.4702  164.9644 C.ar    1  UNL1        0.0741
     11 C         142.1031  141.2228  165.9717 C.ar    1  UNL1        0.1976
     12 O         141.1140  142.3045  166.2901 O.2     1  UNL1       -0.2867
     13 C         140.9249  139.6462  167.6677 C.3     1  UNL1        0.0533
     14 O         140.3894  142.2780  172.2138 O.2     1  UNL1       -0.2625
     15 C         140.8602  141.3001  171.1785 C.2     1  UNL1        0.2792
     16 N         141.9110  140.2475  171.3733 N.am    1  UNL1       -0.2460
     17 C         142.0632  139.4999  170.0818 C.2     1  UNL1        0.2392
     18 O         143.0065  138.3616  169.8279 O.2     1  UNL1       -0.2737
     19 C         141.1064  140.0903  169.0889 C.3     1  UNL1        0.1371
     20 S         140.3629  141.2030  169.7667 S.3     1  UNL1       -0.0482
     21 H         142.4128  140.0773  172.2031 H       1  UNL1        0.1583
@<TRIPOS>BOND
     1    14    15    2
     2    15    16   am
     3    16    17   am
     4    17    18    2
     5    17    19    1
     6    19    13    1
     7    13     1    1
     8     1     2   ar
     9     2     3   ar
    10     3     4   ar
    11     4     5   ar
    12     5     6   ar
    13     6     7   ar
    14     7     8    1
    15     7     9   ar
    16     9    10   ar
    17    10    11   ar
    18    11    12    2
    19    19    20    1
    20    20    15    1
    21    11     1   ar
    22    10     4   ar
    23    16    21    1
@<TRIPOS>MOLECULE
*****
 21 23 0 0 0
SMALL
GASTEIGER

@<TRIPOS>ATOM
      1 C         142.4219  140.0412  166.7328 C.ar    1  UNL1        0.0557
      2 C         143.1671  138.7692  166.4558 C.ar    1  UNL1        0.1784
      3 O         142.6866  137.8368  165.3836 O.2     1  UNL1       -0.4505
      4 C         141.4608  138.1763  164.5884 C.ar    1  UNL1        0.1485
      5 C         140.9803  137.2439  163.5162 C.ar    1  UNL1        0.0385
      6 C         139.7547  137.5834  162.7210 C.ar    1  UNL1        0.0145
      7 C         139.0095  138.8554  162.9980 C.ar    1  UNL1        0.0580
      8 CL        137.7837  139.1950  162.2027 Cl      1  UNL1       -0.0822
      9 C         139.4900  139.7879  164.0702 C.ar    1  UNL1        0.0176
     10 C         140.7157  139.4483  164.8653 C.ar    1  UNL1        0.0741
     11 C         141.1962  140.3808  165.9376 C.ar    1  UNL1        0.1976
     12 O         140.4510  141.6528  166.2146 O.2     1  UNL1       -0.2867
     13 C         142.9025  140.9737  167.8050 C.3     1  UNL1        0.0533
     14 O         140.2582  142.3572  172.1611 O.2     1  UNL1       -0.2625
     15 C         141.0637  141.5691  171.1711 C.2     1  UNL1        0.2792
     16 N         141.5763  140.1726  171.3639 N.am    1  UNL1       -0.2460
     17 C         142.3275  139.7796  170.1264 C.2     1  UNL1        0.2392
     18 O         143.0075  138.4640  169.8883 O.2     1  UNL1       -0.2737
     19 C         142.2792  140.9332  169.1688 C.3     1  UNL1        0.1371
     20 S         141.4981  142.0392  169.8145 S.3     1  UNL1       -0.0482
     21 H         141.4431  139.6124  172.1624 H       1  UNL1        0.1583
@<TRIPOS>BOND
     1    14    15    2
     2    15    16   am
     3    16    17   am
     4    17    18    2
     5    17    19    1
     6    19    13    1
     7    13     1    1
     8     1     2   ar
     9     2     3   ar
    10     3     4   ar
    11     4     5   ar
    12     5     6   ar
    13     6     7   ar
    14     7     8    1
    15     7     9   ar
    16     9    10   ar
    17    10    11   ar
    18    11    12    2
    19    19    20    1
    20    20    15    1
    21    11     1   ar
    22    10     4   ar
    23    16    21    1
@<TRIPOS>MOLECULE
*****
 21 23 0 0 0
SMALL
GASTEIGER

@<TRIPOS>ATOM
      1 C         142.1953  141.4382  166.5061 C.ar    1  UNL1        0.0557
      2 C         143.3616  142.2856  166.0917 C.ar    1  UNL1        0.1784
      3 O         143.1603  143.4213  165.1327 O.2     1  UNL1       -0.4505
      4 C         141.7927  143.7096  164.5880 C.ar    1  UNL1        0.1485
      5 C         141.5914  144.8452  163.6290 C.ar    1  UNL1        0.0385
      6 C         140.2239  145.1335  163.0844 C.ar    1  UNL1        0.0145
      7 C         139.0576  144.2861  163.4988 C.ar    1  UNL1        0.0580
      8 CL        137.6900  144.5744  162.9541 Cl      1  UNL1       -0.0822
      9 C         139.2589  143.1504  164.4578 C.ar    1  UNL1        0.0176
     10 C         140.6264  142.8622  165.0024 C.ar    1  UNL1        0.0741
     11 C         140.8277  141.7265  165.9615 C.ar    1  UNL1        0.1976
     12 O         139.6615  140.8791  166.3759 O.2     1  UNL1       -0.2867
     13 C         142.3966  140.3025  167.4652 C.3     1  UNL1        0.0533
     14 O         140.5868  142.3275  171.9934 O.2     1  UNL1       -0.2625
     15 C         141.2380  141.4119  170.9997 C.2     1  UNL1        0.2792
     16 N         141.8962  140.1000  171.3089 N.am    1  UNL1       -0.2460
     17 C         142.4103  139.5247  170.0225 C.2     1  UNL1        0.2392
     18 O         143.1373  138.2218  169.8676 O.2     1  UNL1       -0.2737
     19 C         142.0699  140.4811  168.9183 C.3     1  UNL1        0.1371
     20 S         141.3453  141.6475  169.5222 S.3     1  UNL1       -0.0482
     21 H         141.9766  139.6887  172.1998 H       1  UNL1        0.1583
@<TRIPOS>BOND
     1    14    15    2
     2    15    16   am
     3    16    17   am
     4    17    18    2
     5    17    19    1
     6    19    13    1
     7    13     1    1
     8     1     2   ar
     9     2     3   ar
    10     3     4   ar
    11     4     5   ar
    12     5     6   ar
    13     6     7   ar
    14     7     8    1
    15     7     9   ar
    16     9    10   ar
    17    10    11   ar
    18    11    12    2
    19    19    20    1
    20    20    15    1
    21    11     1   ar
    22    10     4   ar
    23    16    21    1
@<TRIPOS>MOLECULE
*****
 21 23 0 0 0
SMALL
GASTEIGER

@<TRIPOS>ATOM
      1 C         139.3806  139.1631  165.9124 C.ar    1  UNL1        0.0557
      2 C         138.3149  138.9677  166.9497 C.ar    1  UNL1        0.1784
      3 O         138.5479  139.4237  168.3596 O.2     1  UNL1       -0.4505
      4 C         139.8467  140.0752  168.7321 C.ar    1  UNL1        0.1485
      5 C         140.0798  140.5313  170.1419 C.ar    1  UNL1        0.0385
      6 C         141.3785  141.1828  170.5144 C.ar    1  UNL1        0.0145
      7 C         142.4442  141.3782  169.4771 C.ar    1  UNL1        0.0580
      8 CL        143.7430  142.0298  169.8496 Cl      1  UNL1       -0.0822
      9 C         142.2111  140.9222  168.0672 C.ar    1  UNL1        0.0176
     10 C         140.9124  140.2707  167.6948 C.ar    1  UNL1        0.0741
     11 C         140.6793  139.8146  166.2849 C.ar    1  UNL1        0.1976
     12 O         141.7450  140.0101  165.2475 O.2     1  UNL1       -0.2867
     13 C         139.1475  138.7070  164.5025 C.3     1  UNL1        0.0533
     14 O         137.4950  143.1039  162.0904 O.2     1  UNL1       -0.2625
     15 C         137.7667  141.6608  162.3968 C.2     1  UNL1        0.2792
     16 N         137.3738  140.4897  161.5459 N.am    1  UNL1       -0.2460
     17 C         137.8432  139.2407  162.2311 C.2     1  UNL1        0.2392
     18 O         137.6615  137.8386  161.7299 O.2     1  UNL1       -0.2737
     19 C         138.5262  139.6398  163.5055 C.3     1  UNL1        0.1371
     20 S         138.4790  141.1357  163.6080 S.3     1  UNL1       -0.0482
     21 H         136.8923  140.5332  160.6882 H       1  UNL1        0.1583
@<TRIPOS>BOND
     1    14    15    2
     2    15    16   am
     3    16    17   am
     4    17    18    2
     5    17    19    1
     6    19    13    1
     7    13     1    1
     8     1     2   ar
     9     2     3   ar
    10     3     4   ar
    11     4     5   ar
    12     5     6   ar
    13     6     7   ar
    14     7     8    1
    15     7     9   ar
    16     9    10   ar
    17    10    11   ar
    18    11    12    2
    19    19    20    1
    20    20    15    1
    21    11     1   ar
    22    10     4   ar
    23    16    21    1
@<TRIPOS>MOLECULE
*****
 21 23 0 0 0
SMALL
GASTEIGER

@<TRIPOS>ATOM
      1 C         141.4609  141.8217  164.1695 C.ar    1  UNL1        0.0557
      2 C         141.9787  140.7448  163.2627 C.ar    1  UNL1        0.1784
      3 O         141.4259  139.3537  163.3583 O.2     1  UNL1       -0.4505
      4 C         140.3551  139.0394  164.3608 C.ar    1  UNL1        0.1485
      5 C         139.8023  137.6484  164.4565 C.ar    1  UNL1        0.0385
      6 C         138.7316  137.3342  165.4589 C.ar    1  UNL1        0.0145
      7 C         138.2138  138.4110  166.3657 C.ar    1  UNL1        0.0580
      8 CL        137.1431  138.0968  167.3681 Cl      1  UNL1       -0.0822
      9 C         138.7667  139.8021  166.2700 C.ar    1  UNL1        0.0176
     10 C         139.8373  140.1163  165.2676 C.ar    1  UNL1        0.0741
     11 C         140.3903  141.5075  165.1719 C.ar    1  UNL1        0.1976
     12 O         139.8725  142.5843  166.0786 O.2     1  UNL1       -0.2867
     13 C         142.0139  143.2128  164.0738 C.3     1  UNL1        0.0533
     14 O         139.2062  146.5590  161.1072 O.2     1  UNL1       -0.2625
     15 C         140.2991  145.6510  161.5876 C.2     1  UNL1        0.2792
     16 N         141.5747  145.3449  160.8602 N.am    1  UNL1       -0.2460
     17 C         142.3723  144.3943  161.7030 C.2     1  UNL1        0.2392
     18 O         143.7166  143.8251  161.3580 O.2     1  UNL1       -0.2737
     19 C         141.5897  144.1129  162.9513 C.3     1  UNL1        0.1371
     20 S         140.3083  144.8895  162.8800 S.3     1  UNL1       -0.0482
     21 H         141.8416  145.7047  159.9835 H       1  UNL1        0.1583
@<TRIPOS>BOND
     1    14    15    2
     2    15    16   am
     3    16    17   am
     4    17    18    2
     5    17    19    1
     6    19    13    1
     7    13     1    1
     8     1     2   ar
     9     2     3   ar
    10     3     4   ar
    11     4     5   ar
    12     5     6   ar
    13     6     7   ar
    14     7     8    1
    15     7     9   ar
    16     9    10   ar
    17    10    11   ar
    18    11    12    2
    19    19    20    1
    20    20    15    1
    21    11     1   ar
    22    10     4   ar
    23    16    21    1
@<TRIPOS>MOLECULE
*****
 21 23 0 0 0
SMALL
GASTEIGER

@<TRIPOS>ATOM
      1 C         141.3476  139.9122  167.0368 C.ar    1  UNL1        0.0557
      2 C         142.5868  140.2858  166.2786 C.ar    1  UNL1        0.1784
      3 O         142.5844  140.2609  164.7788 O.2     1  UNL1       -0.4505
      4 C         141.3429  139.8624  164.0372 C.ar    1  UNL1        0.1485
      5 C         141.3406  139.8374  162.5375 C.ar    1  UNL1        0.0385
      6 C         140.0992  139.4389  161.7959 C.ar    1  UNL1        0.0145
      7 C         138.8600  139.0653  162.5542 C.ar    1  UNL1        0.0580
      8 CL        137.6185  138.6667  161.8126 Cl      1  UNL1       -0.0822
      9 C         138.8623  139.0902  164.0539 C.ar    1  UNL1        0.0176
     10 C         140.1038  139.4888  164.7955 C.ar    1  UNL1        0.0741
     11 C         140.1061  139.5137  166.2953 C.ar    1  UNL1        0.1976
     12 O         138.8670  139.1401  167.0535 O.2     1  UNL1       -0.2867
     13 C         141.3500  139.9372  168.5367 C.3     1  UNL1        0.0533
     14 O         140.2370  144.8066  170.2485 O.2     1  UNL1       -0.2625
     15 C         140.2019  143.3195  170.0556 C.2     1  UNL1        0.2792
     16 N         139.2660  142.3642  170.7349 N.am    1  UNL1       -0.2460
     17 C         139.5821  140.9809  170.2486 C.2     1  UNL1        0.2392
     18 O         138.8887  139.7188  170.6684 O.2     1  UNL1       -0.2737
     19 C         140.7134  141.0813  169.2687 C.3     1  UNL1        0.1371
     20 S         141.0965  142.5267  169.1494 S.3     1  UNL1       -0.0482
     21 H         138.5669  142.6031  171.3856 H       1  UNL1        0.1583
@<TRIPOS>BOND
     1    14    15    2
     2    15    16   am
     3    16    17   am
     4    17    18    2
     5    17    19    1
     6    19    13    1
     7    13     1    1
     8     1     2   ar
     9     2     3   ar
    10     3     4   ar
    11     4     5   ar
    12     5     6   ar
    13     6     7   ar
    14     7     8    1
    15     7     9   ar
    16     9    10   ar
    17    10    11   ar
    18    11    12    2
    19    19    20    1
    20    20    15    1
    21    11     1   ar
    22    10     4   ar
    23    16    21    1
@<TRIPOS>MOLECULE
*****
 21 23 0 0 0
SMALL
GASTEIGER

@<TRIPOS>ATOM
      1 C         140.4459  140.9444  166.4398 C.ar    1  UNL1        0.0557
      2 C         139.1338  141.2707  165.7901 C.ar    1  UNL1        0.1784
      3 O         139.0620  142.3398  164.7404 O.2     1  UNL1       -0.4505
      4 C         140.3023  143.0827  164.3404 C.ar    1  UNL1        0.1485
      5 C         140.2304  144.1518  163.2907 C.ar    1  UNL1        0.0385
      6 C         141.4706  144.8946  162.8908 C.ar    1  UNL1        0.0145
      7 C         142.7827  144.5683  163.5404 C.ar    1  UNL1        0.0580
      8 CL        144.0230  145.3112  163.1404 Cl      1  UNL1       -0.0822
      9 C         142.8545  143.4992  164.5901 C.ar    1  UNL1        0.0176
     10 C         141.6143  142.7564  164.9901 C.ar    1  UNL1        0.0741
     11 C         141.6861  141.6872  166.0398 C.ar    1  UNL1        0.1976
     12 O         142.9982  141.3609  166.6894 O.2     1  UNL1       -0.2867
     13 C         140.5177  139.8752  167.4895 C.3     1  UNL1        0.0533
     14 O         140.4495  142.1243  172.2663 O.2     1  UNL1       -0.2625
     15 C         140.8393  141.2678  171.0982 C.2     1  UNL1        0.2792
     16 N         141.9883  140.3045  171.0558 N.am    1  UNL1       -0.2460
     17 C         142.0077  139.6656  169.6988 C.2     1  UNL1        0.2392
     18 O         142.9914  138.6386  169.2218 O.2     1  UNL1       -0.2737
     19 C         140.8707  140.2340  168.9025 C.3     1  UNL1        0.1371
     20 S         140.1485  141.2243  169.7674 S.3     1  UNL1       -0.0482
     21 H         142.6190  140.1234  171.7897 H       1  UNL1        0.1583
@<TRIPOS>BOND
     1    14    15    2
     2    15    16   am
     3    16    17   am
     4    17    18    2
     5    17    19    1
     6    19    13    1
     7    13     1    1
     8     1     2   ar
     9     2     3   ar
    10     3     4   ar
    11     4     5   ar
    12     5     6   ar
    13     6     7   ar
    14     7     8    1
    15     7     9   ar
    16     9    10   ar
    17    10    11   ar
    18    11    12    2
    19    19    20    1
    20    20    15    1
    21    11     1   ar
    22    10     4   ar
    23    16    21    1
@<TRIPOS>MOLECULE
*****
 21 23 0 0 0
SMALL
GASTEIGER

@<TRIPOS>ATOM
      1 C         141.0978  141.8366  166.3562 C.ar    1  UNL1        0.0557
      2 C         140.3465  143.1157  166.1342 C.ar    1  UNL1        0.1784
      3 O         139.2448  143.1717  165.1178 O.2     1  UNL1       -0.4505
      4 C         138.8943  141.9484  164.3234 C.ar    1  UNL1        0.1485
      5 C         137.7926  142.0044  163.3071 C.ar    1  UNL1        0.0385
      6 C         137.4421  140.7812  162.5128 C.ar    1  UNL1        0.0145
      7 C         138.1935  139.5021  162.7348 C.ar    1  UNL1        0.0580
      8 CL        137.8430  138.2789  161.9404 Cl      1  UNL1       -0.0822
      9 C         139.2952  139.4461  163.7511 C.ar    1  UNL1        0.0176
     10 C         139.6456  140.6693  164.5455 C.ar    1  UNL1        0.0741
     11 C         140.7474  140.6134  165.5619 C.ar    1  UNL1        0.1976
     12 O         141.4988  139.3342  165.7839 O.2     1  UNL1       -0.2867
     13 C         142.1996  141.7806  167.3726 C.3     1  UNL1        0.0533
     14 O         140.4214  142.1523  172.3305 O.2     1  UNL1       -0.2625
     15 C         141.0672  141.6286  171.0821 C.2     1  UNL1        0.2792
     16 N         141.7325  140.2931  170.9271 N.am    1  UNL1       -0.2460
     17 C         142.2376  140.1875  169.5187 C.2     1  UNL1        0.2392
     18 O         142.9676  139.0172  168.9293 O.2     1  UNL1       -0.2737
     19 C         141.8846  141.4577  168.8031 C.3     1  UNL1        0.1371
     20 S         141.1612  142.3484  169.7694 S.3     1  UNL1       -0.0482
     21 H         141.8218  139.6064  171.6269 H       1  UNL1        0.1583
@<TRIPOS>BOND
     1    14    15    2
     2    15    16   am
     3    16    17   am
     4    17    18    2
     5    17    19    1
     6    19    13    1
     7    13     1    1
     8     1     2   ar
     9     2     3   ar
    10     3     4   ar
    11     4     5   ar
    12     5     6   ar
    13     6     7   ar
    14     7     8    1
    15     7     9   ar
    16     9    10   ar
    17    10    11   ar
    18    11    12    2
    19    19    20    1
    20    20    15    1
    21    11     1   ar
    22    10     4   ar
    23    16    21    1
