@<TRIPOS>MOLECULE
*****
 39 43 0 0 0
SMALL
GASTEIGER

@<TRIPOS>ATOM
      1 C         136.6992  143.3064  155.2479 C.3     1  UNL1        0.0437
      2 C         137.3931  142.0382  155.6481 C.3     1  UNL1        0.1368
      3 C         137.1393  141.7499  154.1980 C.3     1  UNL1        0.0437
      4 C         137.9989  140.6699  155.5446 C.3     1  UNL1        0.0643
      5 C         138.6175  140.0303  156.7522 C.3     1  UNL1        0.1023
      6 C         138.6304  140.7590  158.0632 C.ar    1  UNL1        0.0488
      7 C         139.2490  140.1194  159.2708 C.ar    1  UNL1        0.0034
      8 C         139.2618  140.8481  160.5818 C.ar    1  UNL1        0.0177
      9 C         138.6560  142.2164  160.6853 C.ar    1  UNL1        0.0851
     10 N         138.0374  142.8560  159.4777 N.ar    1  UNL1       -0.2119
     11 C         138.0246  142.1273  158.1666 C.ar    1  UNL1        0.2219
     12 O         137.4060  142.7669  156.9591 O.3     1  UNL1       -0.4676
     13 C         138.6688  142.9451  161.9963 C.ar    1  UNL1        0.0284
     14 C         137.6063  142.6688  163.0184 C.ar    1  UNL1        0.0032
     15 C         137.6192  143.3976  164.3295 C.ar    1  UNL1        0.0115
     16 C         138.6945  144.4026  164.6183 C.ar    1  UNL1        0.0585
     17 CL        138.7073  145.1313  165.9294 Cl      1  UNL1       -0.0822
     18 C         139.7570  144.6790  163.5962 C.ar    1  UNL1        0.0228
     19 C         139.7442  143.9503  162.2852 C.ar    1  UNL1        0.0599
     20 CL        140.8067  144.2266  161.2631 Cl      1  UNL1       -0.0822
     21 C         139.8804  140.2085  161.7894 C.ar    1  UNL1        0.0015
     22 C         141.3033  140.5133  162.1535 C.ar    1  UNL1        0.0009
     23 C         141.9219  139.8737  163.3611 C.ar    1  UNL1        0.0114
     24 C         141.1176  138.9293  164.2045 C.ar    1  UNL1        0.0577
     25 CL        141.7362  138.2897  165.4121 Cl      1  UNL1       -0.0822
     26 C         139.6948  138.6245  163.8404 C.ar    1  UNL1        0.0114
     27 C         139.0762  139.2641  162.6328 C.ar    1  UNL1        0.0009
     28 N         139.2233  138.6619  156.6487 N.am    1  UNL1       -0.2984
     29 C         140.6849  138.5095  156.3479 C.2     1  UNL1        0.2490
     30 O         141.5408  139.7255  156.1505 O.2     1  UNL1       -0.2700
     31 H         138.6616  137.8638  156.7783 H       1  UNL1        0.1500
     32 C         141.2907  137.1412  156.2444 C.ar    1  UNL1        0.0870
     33 C         140.6750  136.1148  155.3403 C.ar    1  UNL1        0.0076
     34 C         141.2807  134.7465  155.2368 C.ar    1  UNL1        0.0003
     35 C         142.5022  134.4046  156.0374 C.ar    1  UNL1        0.0031
     36 C         143.1180  135.4309  156.9415 C.ar    1  UNL1        0.0368
     37 C         142.5122  136.7992  157.0450 C.ar    1  UNL1        0.1380
     38 O         143.1280  137.8256  157.9491 O.3     1  UNL1       -0.5054
     39 H         143.8910  137.6120  158.4492 H       1  UNL1        0.2922
@<TRIPOS>BOND
     1     1     2    1
     2     2     3    1
     3     2     4    1
     4     4     5    1
     5     5    28    1
     6    28    29   am
     7    29    30    2
     8    29    32    1
     9    32    33   ar
    10    33    34   ar
    11    34    35   ar
    12    35    36   ar
    13    36    37   ar
    14    37    38    1
    15     5     6    1
    16     6     7   ar
    17     7     8   ar
    18     8    21    1
    19    21    22   ar
    20    22    23   ar
    21    23    24   ar
    22    24    25    1
    23    24    26   ar
    24    26    27   ar
    25     8     9   ar
    26     9    13    1
    27    13    14   ar
    28    14    15   ar
    29    15    16   ar
    30    16    17    1
    31    16    18   ar
    32    18    19   ar
    33    19    20    1
    34     9    10   ar
    35    10    11   ar
    36    11    12    1
    37    12     2    1
    38    37    32   ar
    39    11     6   ar
    40    27    21   ar
    41    19    13   ar
    42    28    31    1
    43    38    39    1
@<TRIPOS>MOLECULE
*****
 39 43 0 0 0
SMALL
GASTEIGER

@<TRIPOS>ATOM
      1 C         143.9654  135.8273  155.8161 C.3     1  UNL1        0.0437
      2 C         142.8013  136.7733  155.8286 C.3     1  UNL1        0.1368
      3 C         142.8475  136.4364  154.3676 C.3     1  UNL1        0.0437
      4 C         141.6534  137.6023  155.3338 C.3     1  UNL1        0.0643
      5 C         140.8635  138.4396  156.2955 C.3     1  UNL1        0.1023
      6 C         141.2215  138.4479  157.7521 C.ar    1  UNL1        0.0488
      7 C         140.4316  139.2852  158.7139 C.ar    1  UNL1        0.0034
      8 C         140.7897  139.2935  160.1704 C.ar    1  UNL1        0.0177
      9 C         141.9377  138.4645  160.6653 C.ar    1  UNL1        0.0851
     10 N         142.7276  137.6272  159.7036 N.ar    1  UNL1       -0.2119
     11 C         142.3695  137.6189  158.2469 C.ar    1  UNL1        0.2219
     12 O         143.1594  136.7816  157.2852 O.3     1  UNL1       -0.4676
     13 C         142.2958  138.4728  162.1219 C.ar    1  UNL1        0.0284
     14 C         141.5331  137.6140  163.0867 C.ar    1  UNL1        0.0032
     15 C         141.8912  137.6224  164.5433 C.ar    1  UNL1        0.0115
     16 C         143.0120  138.4895  165.0352 C.ar    1  UNL1        0.0585
     17 CL        143.3701  138.4978  166.4917 Cl      1  UNL1       -0.0822
     18 C         143.7747  139.3483  164.0704 C.ar    1  UNL1        0.0228
     19 C         143.4166  139.3400  162.6138 C.ar    1  UNL1        0.0599
     20 CL        144.1793  140.1988  161.6491 Cl      1  UNL1       -0.0822
     21 C         139.9998  140.1308  161.1322 C.ar    1  UNL1        0.0015
     22 C         140.4911  141.4945  161.5182 C.ar    1  UNL1        0.0009
     23 C         139.7012  142.3318  162.4800 C.ar    1  UNL1        0.0114
     24 C         138.4200  141.8054  163.0557 C.ar    1  UNL1        0.0577
     25 CL        137.6301  142.6427  164.0175 Cl      1  UNL1       -0.0822
     26 C         137.9287  140.4418  162.6697 C.ar    1  UNL1        0.0114
     27 C         138.7186  139.6045  161.7079 C.ar    1  UNL1        0.0009
     28 N         139.7154  139.2686  155.8006 N.am    1  UNL1       -0.2984
     29 C         138.4346  138.6058  155.3882 C.2     1  UNL1        0.2490
     30 O         138.3018  137.1139  155.4706 O.2     1  UNL1       -0.2700
     31 H         139.8026  140.2477  155.7465 H       1  UNL1        0.1500
     32 C         137.2866  139.4348  154.8933 C.ar    1  UNL1        0.0870
     33 C         136.7913  139.2667  153.4875 C.ar    1  UNL1        0.0076
     34 C         135.6433  140.0956  152.9926 C.ar    1  UNL1        0.0003
     35 C         134.9907  141.0926  153.9035 C.ar    1  UNL1        0.0031
     36 C         135.4860  141.2608  155.3094 C.ar    1  UNL1        0.0368
     37 C         136.6339  140.4318  155.8043 C.ar    1  UNL1        0.1380
     38 O         137.1292  140.5999  157.2101 O.3     1  UNL1       -0.5054
     39 H         136.7215  141.2228  157.7792 H       1  UNL1        0.2922
@<TRIPOS>BOND
     1     1     2    1
     2     2     3    1
     3     2     4    1
     4     4     5    1
     5     5    28    1
     6    28    29   am
     7    29    30    2
     8    29    32    1
     9    32    33   ar
    10    33    34   ar
    11    34    35   ar
    12    35    36   ar
    13    36    37   ar
    14    37    38    1
    15     5     6    1
    16     6     7   ar
    17     7     8   ar
    18     8    21    1
    19    21    22   ar
    20    22    23   ar
    21    23    24   ar
    22    24    25    1
    23    24    26   ar
    24    26    27   ar
    25     8     9   ar
    26     9    13    1
    27    13    14   ar
    28    14    15   ar
    29    15    16   ar
    30    16    17    1
    31    16    18   ar
    32    18    19   ar
    33    19    20    1
    34     9    10   ar
    35    10    11   ar
    36    11    12    1
    37    12     2    1
    38    37    32   ar
    39    11     6   ar
    40    27    21   ar
    41    19    13   ar
    42    28    31    1
    43    38    39    1
@<TRIPOS>MOLECULE
*****
 39 43 0 0 0
SMALL
GASTEIGER

@<TRIPOS>ATOM
      1 C         136.8307  142.9557  155.2330 C.3     1  UNL1        0.0437
      2 C         137.8730  141.9402  155.5969 C.3     1  UNL1        0.1368
      3 C         137.6826  141.6097  154.1462 C.3     1  UNL1        0.0437
      4 C         138.8491  140.8100  155.4570 C.3     1  UNL1        0.0643
      5 C         139.6538  140.3629  156.6414 C.3     1  UNL1        0.1023
      6 C         139.4822  141.0461  157.9657 C.ar    1  UNL1        0.0488
      7 C         140.2868  140.5990  159.1500 C.ar    1  UNL1        0.0034
      8 C         140.1153  141.2822  160.4743 C.ar    1  UNL1        0.0177
      9 C         139.1391  142.4126  160.6143 C.ar    1  UNL1        0.0851
     10 N         138.3345  142.8596  159.4299 N.ar    1  UNL1       -0.2119
     11 C         138.5061  142.1764  158.1056 C.ar    1  UNL1        0.2219
     12 O         137.7015  142.6234  156.9212 O.3     1  UNL1       -0.4676
     13 C         138.9676  143.0958  161.9386 C.ar    1  UNL1        0.0284
     14 C         139.7337  144.3496  162.2405 C.ar    1  UNL1        0.0032
     15 C         139.5622  145.0328  163.5648 C.ar    1  UNL1        0.0115
     16 C         138.6245  144.4622  164.5872 C.ar    1  UNL1        0.0585
     17 CL        138.4530  145.1454  165.9115 Cl      1  UNL1       -0.0822
     18 C         137.8584  143.2084  164.2853 C.ar    1  UNL1        0.0228
     19 C         138.0300  142.5252  162.9610 C.ar    1  UNL1        0.0599
     20 CL        137.2639  141.2714  162.6591 Cl      1  UNL1       -0.0822
     21 C         140.9199  140.8352  161.6587 C.ar    1  UNL1        0.0015
     22 C         140.4455  139.6851  162.4968 C.ar    1  UNL1        0.0009
     23 C         141.2501  139.2380  163.6811 C.ar    1  UNL1        0.0114
     24 C         142.5291  139.9411  164.0274 C.ar    1  UNL1        0.0577
     25 CL        143.3338  139.4940  165.2118 Cl      1  UNL1       -0.0822
     26 C         143.0035  141.0911  163.1894 C.ar    1  UNL1        0.0114
     27 C         142.1989  141.5381  162.0050 C.ar    1  UNL1        0.0009
     28 N         140.6299  139.2326  156.5014 N.am    1  UNL1       -0.2984
     29 C         140.1335  137.8397  156.2497 C.2     1  UNL1        0.2490
     30 O         138.6609  137.5771  156.1378 O.2     1  UNL1       -0.2700
     31 H         141.5964  139.4049  156.5748 H       1  UNL1        0.1500
     32 C         141.1097  136.7094  156.1097 C.ar    1  UNL1        0.0870
     33 C         140.8758  135.6390  155.0852 C.ar    1  UNL1        0.0076
     34 C         141.8519  134.5087  154.9452 C.ar    1  UNL1        0.0003
     35 C         143.0619  134.4488  155.8297 C.ar    1  UNL1        0.0031
     36 C         143.2957  135.5192  156.8542 C.ar    1  UNL1        0.0368
     37 C         142.3196  136.6495  156.9942 C.ar    1  UNL1        0.1380
     38 O         142.5535  137.7198  158.0187 O.3     1  UNL1       -0.5054
     39 H         143.3093  137.6824  158.5713 H       1  UNL1        0.2922
@<TRIPOS>BOND
     1     1     2    1
     2     2     3    1
     3     2     4    1
     4     4     5    1
     5     5    28    1
     6    28    29   am
     7    29    30    2
     8    29    32    1
     9    32    33   ar
    10    33    34   ar
    11    34    35   ar
    12    35    36   ar
    13    36    37   ar
    14    37    38    1
    15     5     6    1
    16     6     7   ar
    17     7     8   ar
    18     8    21    1
    19    21    22   ar
    20    22    23   ar
    21    23    24   ar
    22    24    25    1
    23    24    26   ar
    24    26    27   ar
    25     8     9   ar
    26     9    13    1
    27    13    14   ar
    28    14    15   ar
    29    15    16   ar
    30    16    17    1
    31    16    18   ar
    32    18    19   ar
    33    19    20    1
    34     9    10   ar
    35    10    11   ar
    36    11    12    1
    37    12     2    1
    38    37    32   ar
    39    11     6   ar
    40    27    21   ar
    41    19    13   ar
    42    28    31    1
    43    38    39    1
@<TRIPOS>MOLECULE
*****
 39 43 0 0 0
SMALL
GASTEIGER

@<TRIPOS>ATOM
      1 C         146.5313  143.0824  154.9106 C.3     1  UNL1        0.0437
      2 C         145.5767  141.9416  155.1040 C.3     1  UNL1        0.1368
      3 C         145.8275  141.8243  153.6298 C.3     1  UNL1        0.0437
      4 C         144.7093  140.7601  154.7854 C.3     1  UNL1        0.0643
      5 C         143.9225  140.0921  155.8739 C.3     1  UNL1        0.1023
      6 C         144.0032  140.6055  157.2809 C.ar    1  UNL1        0.0488
      7 C         143.2164  139.9375  158.3694 C.ar    1  UNL1        0.0034
      8 C         143.2971  140.4510  159.7764 C.ar    1  UNL1        0.0177
      9 C         144.1646  141.6326  160.0951 C.ar    1  UNL1        0.0851
     10 N         144.9513  142.3006  159.0066 N.ar    1  UNL1       -0.2119
     11 C         144.8706  141.7871  157.5995 C.ar    1  UNL1        0.2219
     12 O         145.6574  142.4551  156.5110 O.3     1  UNL1       -0.4676
     13 C         144.2453  142.1460  161.5021 C.ar    1  UNL1        0.0284
     14 C         145.2299  141.5487  162.4632 C.ar    1  UNL1        0.0032
     15 C         145.3105  142.0622  163.8703 C.ar    1  UNL1        0.0115
     16 C         144.4066  143.1731  164.3162 C.ar    1  UNL1        0.0585
     17 CL        144.4873  143.6865  165.7232 Cl      1  UNL1       -0.0822
     18 C         143.4220  143.7704  163.3551 C.ar    1  UNL1        0.0228
     19 C         143.3413  143.2569  161.9481 C.ar    1  UNL1        0.0599
     20 CL        142.3567  143.8543  160.9870 Cl      1  UNL1       -0.0822
     21 C         142.5104  139.7829  160.8649 C.ar    1  UNL1        0.0015
     22 C         143.0859  138.6026  161.5900 C.ar    1  UNL1        0.0009
     23 C         142.2991  137.9346  162.6785 C.ar    1  UNL1        0.0114
     24 C         140.9369  138.4469  163.0418 C.ar    1  UNL1        0.0577
     25 CL        140.1501  137.7788  164.1303 Cl      1  UNL1       -0.0822
     26 C         140.3614  139.6271  162.3167 C.ar    1  UNL1        0.0114
     27 C         141.1482  140.2952  161.2282 C.ar    1  UNL1        0.0009
     28 N         143.0550  138.9105  155.5553 N.am    1  UNL1       -0.2984
     29 C         143.6741  137.5604  155.3456 C.2     1  UNL1        0.2490
     30 O         145.1606  137.3918  155.4545 O.2     1  UNL1       -0.2700
     31 H         142.0794  139.0211  155.4838 H       1  UNL1        0.1500
     32 C         142.8066  136.3788  155.0270 C.ar    1  UNL1        0.0870
     33 C         141.6876  136.5151  154.0373 C.ar    1  UNL1        0.0076
     34 C         140.8202  135.3336  153.7187 C.ar    1  UNL1        0.0003
     35 C         141.0717  134.0159  154.3897 C.ar    1  UNL1        0.0031
     36 C         142.1907  133.8796  155.3793 C.ar    1  UNL1        0.0368
     37 C         143.0581  135.0611  155.6979 C.ar    1  UNL1        0.1380
     38 O         144.1771  134.9248  156.6875 O.3     1  UNL1       -0.5054
     39 H         144.3342  134.1017  157.1067 H       1  UNL1        0.2922
@<TRIPOS>BOND
     1     1     2    1
     2     2     3    1
     3     2     4    1
     4     4     5    1
     5     5    28    1
     6    28    29   am
     7    29    30    2
     8    29    32    1
     9    32    33   ar
    10    33    34   ar
    11    34    35   ar
    12    35    36   ar
    13    36    37   ar
    14    37    38    1
    15     5     6    1
    16     6     7   ar
    17     7     8   ar
    18     8    21    1
    19    21    22   ar
    20    22    23   ar
    21    23    24   ar
    22    24    25    1
    23    24    26   ar
    24    26    27   ar
    25     8     9   ar
    26     9    13    1
    27    13    14   ar
    28    14    15   ar
    29    15    16   ar
    30    16    17    1
    31    16    18   ar
    32    18    19   ar
    33    19    20    1
    34     9    10   ar
    35    10    11   ar
    36    11    12    1
    37    12     2    1
    38    37    32   ar
    39    11     6   ar
    40    27    21   ar
    41    19    13   ar
    42    28    31    1
    43    38    39    1
@<TRIPOS>MOLECULE
*****
 39 43 0 0 0
SMALL
GASTEIGER

@<TRIPOS>ATOM
      1 C         141.3564  145.5232  155.3014 C.3     1  UNL1        0.0437
      2 C         141.3204  144.0448  155.5526 C.3     1  UNL1        0.1368
      3 C         141.7218  144.0538  154.1072 C.3     1  UNL1        0.0437
      4 C         141.4239  142.5696  155.3018 C.3     1  UNL1        0.0643
      5 C         141.1384  141.5987  156.4090 C.3     1  UNL1        0.1023
      6 C         140.7495  142.1031  157.7670 C.ar    1  UNL1        0.0488
      7 C         140.4641  141.1323  158.8743 C.ar    1  UNL1        0.0034
      8 C         140.0752  141.6367  160.2323 C.ar    1  UNL1        0.0177
      9 C         139.9717  143.1120  160.4832 C.ar    1  UNL1        0.0851
     10 N         140.2571  144.0828  159.3759 N.ar    1  UNL1       -0.2119
     11 C         140.6461  143.5784  158.0178 C.ar    1  UNL1        0.2219
     12 O         140.9315  144.5492  156.9106 O.3     1  UNL1       -0.4676
     13 C         139.5828  143.6164  161.8412 C.ar    1  UNL1        0.0284
     14 C         138.1387  143.6437  162.2459 C.ar    1  UNL1        0.0032
     15 C         137.7498  144.1481  163.6040 C.ar    1  UNL1        0.0115
     16 C         138.8050  144.6252  164.5573 C.ar    1  UNL1        0.0585
     17 CL        138.4161  145.1296  165.9154 Cl      1  UNL1       -0.0822
     18 C         140.2491  144.5979  164.1526 C.ar    1  UNL1        0.0228
     19 C         140.6380  144.0935  162.7946 C.ar    1  UNL1        0.0599
     20 CL        142.0821  144.0662  162.3899 Cl      1  UNL1       -0.0822
     21 C         139.7897  140.6658  161.3396 C.ar    1  UNL1        0.0015
     22 C         140.8582  140.3317  162.3380 C.ar    1  UNL1        0.0009
     23 C         140.5727  139.3608  163.4453 C.ar    1  UNL1        0.0114
     24 C         139.2188  138.7242  163.5541 C.ar    1  UNL1        0.0577
     25 CL        138.9334  137.7533  164.6613 Cl      1  UNL1       -0.0822
     26 C         138.1505  139.0584  162.5556 C.ar    1  UNL1        0.0114
     27 C         138.4359  140.0292  161.4484 C.ar    1  UNL1        0.0009
     28 N         141.2419  140.1234  156.1582 N.am    1  UNL1       -0.2984
     29 C         142.5633  139.4287  156.3042 C.2     1  UNL1        0.2490
     30 O         143.7812  140.2092  156.7010 O.2     1  UNL1       -0.2700
     31 H         140.4426  139.6111  155.8977 H       1  UNL1        0.1500
     32 C         142.6668  137.9534  156.0533 C.ar    1  UNL1        0.0870
     33 C         141.4472  137.0868  156.1620 C.ar    1  UNL1        0.0076
     34 C         141.5507  135.6116  155.9112 C.ar    1  UNL1        0.0003
     35 C         142.8736  135.0030  155.5517 C.ar    1  UNL1        0.0031
     36 C         144.0932  135.8695  155.4431 C.ar    1  UNL1        0.0368
     37 C         143.9897  137.3448  155.6939 C.ar    1  UNL1        0.1380
     38 O         145.2093  138.2113  155.5852 O.3     1  UNL1       -0.5054
     39 H         146.0357  137.8311  155.3607 H       1  UNL1        0.2922
@<TRIPOS>BOND
     1     1     2    1
     2     2     3    1
     3     2     4    1
     4     4     5    1
     5     5    28    1
     6    28    29   am
     7    29    30    2
     8    29    32    1
     9    32    33   ar
    10    33    34   ar
    11    34    35   ar
    12    35    36   ar
    13    36    37   ar
    14    37    38    1
    15     5     6    1
    16     6     7   ar
    17     7     8   ar
    18     8    21    1
    19    21    22   ar
    20    22    23   ar
    21    23    24   ar
    22    24    25    1
    23    24    26   ar
    24    26    27   ar
    25     8     9   ar
    26     9    13    1
    27    13    14   ar
    28    14    15   ar
    29    15    16   ar
    30    16    17    1
    31    16    18   ar
    32    18    19   ar
    33    19    20    1
    34     9    10   ar
    35    10    11   ar
    36    11    12    1
    37    12     2    1
    38    37    32   ar
    39    11     6   ar
    40    27    21   ar
    41    19    13   ar
    42    28    31    1
    43    38    39    1
@<TRIPOS>MOLECULE
*****
 39 43 0 0 0
SMALL
GASTEIGER

@<TRIPOS>ATOM
      1 C         135.9981  140.7710  156.2715 C.3     1  UNL1        0.0437
      2 C         137.4979  140.7537  156.2942 C.3     1  UNL1        0.1368
      3 C         137.2623  141.0054  154.8343 C.3     1  UNL1        0.0437
      4 C         138.9158  140.8238  155.8098 C.3     1  UNL1        0.0643
      5 C         140.0484  140.6482  156.7775 C.3     1  UNL1        0.1023
      6 C         139.7631  140.4026  158.2295 C.ar    1  UNL1        0.0488
      7 C         140.8957  140.2270  159.1971 C.ar    1  UNL1        0.0034
      8 C         140.6105  139.9813  160.6491 C.ar    1  UNL1        0.0177
      9 C         139.1925  139.9112  161.1334 C.ar    1  UNL1        0.0851
     10 N         138.0599  140.0868  160.1658 N.ar    1  UNL1       -0.2119
     11 C         138.3452  140.3325  158.7138 C.ar    1  UNL1        0.2219
     12 O         137.2126  140.5080  157.7461 O.3     1  UNL1       -0.4676
     13 C         138.9072  139.6656  162.5854 C.ar    1  UNL1        0.0284
     14 C         139.0132  138.2784  163.1463 C.ar    1  UNL1        0.0032
     15 C         138.7279  138.0328  164.5984 C.ar    1  UNL1        0.0115
     16 C         138.3366  139.1743  165.4894 C.ar    1  UNL1        0.0585
     17 CL        138.0514  138.9286  166.9413 Cl      1  UNL1       -0.0822
     18 C         138.2307  140.5614  164.9284 C.ar    1  UNL1        0.0228
     19 C         138.5160  140.8071  163.4765 C.ar    1  UNL1        0.0599
     20 CL        138.4100  142.1942  162.9155 Cl      1  UNL1       -0.0822
     21 C         141.7431  139.8058  161.6167 C.ar    1  UNL1        0.0015
     22 C         142.1535  140.9426  162.5052 C.ar    1  UNL1        0.0009
     23 C         143.2861  140.7670  163.4729 C.ar    1  UNL1        0.0114
     24 C         144.0083  139.4547  163.5520 C.ar    1  UNL1        0.0577
     25 CL        145.1409  139.2791  164.5196 Cl      1  UNL1       -0.0822
     26 C         143.5979  138.3180  162.6635 C.ar    1  UNL1        0.0114
     27 C         142.4653  138.4935  161.6959 C.ar    1  UNL1        0.0009
     28 N         141.4664  140.7184  156.2931 N.am    1  UNL1       -0.2984
     29 C         142.2154  142.0166  156.3511 C.2     1  UNL1        0.2490
     30 O         141.5465  143.2448  156.8934 O.2     1  UNL1       -0.2700
     31 H         141.9054  139.9122  155.9372 H       1  UNL1        0.1500
     32 C         143.6333  142.0867  155.8667 C.ar    1  UNL1        0.0870
     33 C         144.0395  143.1473  154.8868 C.ar    1  UNL1        0.0076
     34 C         145.4574  143.2174  154.4024 C.ar    1  UNL1        0.0003
     35 C         146.4691  142.2270  154.8979 C.ar    1  UNL1        0.0031
     36 C         146.0629  141.1665  155.8779 C.ar    1  UNL1        0.0368
     37 C         144.6450  141.0964  156.3623 C.ar    1  UNL1        0.1380
     38 O         144.2388  140.0358  157.3422 O.3     1  UNL1       -0.5054
     39 H         144.8708  139.4172  157.6518 H       1  UNL1        0.2922
@<TRIPOS>BOND
     1     1     2    1
     2     2     3    1
     3     2     4    1
     4     4     5    1
     5     5    28    1
     6    28    29   am
     7    29    30    2
     8    29    32    1
     9    32    33   ar
    10    33    34   ar
    11    34    35   ar
    12    35    36   ar
    13    36    37   ar
    14    37    38    1
    15     5     6    1
    16     6     7   ar
    17     7     8   ar
    18     8    21    1
    19    21    22   ar
    20    22    23   ar
    21    23    24   ar
    22    24    25    1
    23    24    26   ar
    24    26    27   ar
    25     8     9   ar
    26     9    13    1
    27    13    14   ar
    28    14    15   ar
    29    15    16   ar
    30    16    17    1
    31    16    18   ar
    32    18    19   ar
    33    19    20    1
    34     9    10   ar
    35    10    11   ar
    36    11    12    1
    37    12     2    1
    38    37    32   ar
    39    11     6   ar
    40    27    21   ar
    41    19    13   ar
    42    28    31    1
    43    38    39    1
@<TRIPOS>MOLECULE
*****
 39 43 0 0 0
SMALL
GASTEIGER

@<TRIPOS>ATOM
      1 C         143.5464  135.8251  156.2174 C.3     1  UNL1        0.0437
      2 C         142.7988  137.1255  156.2296 C.3     1  UNL1        0.1368
      3 C         142.7718  136.8233  154.7605 C.3     1  UNL1        0.0437
      4 C         142.0419  138.3209  155.7315 C.3     1  UNL1        0.0643
      5 C         141.5715  139.3670  156.6982 C.3     1  UNL1        0.1023
      6 C         141.8581  139.2176  158.1630 C.ar    1  UNL1        0.0488
      7 C         141.3877  140.2637  159.1297 C.ar    1  UNL1        0.0034
      8 C         141.6742  140.1144  160.5944 C.ar    1  UNL1        0.0177
      9 C         142.4312  138.9189  161.0926 C.ar    1  UNL1        0.0851
     10 N         142.9015  137.8729  160.1258 N.ar    1  UNL1       -0.2119
     11 C         142.6150  138.0223  158.6610 C.ar    1  UNL1        0.2219
     12 O         143.0853  136.9762  157.6943 O.3     1  UNL1       -0.4676
     13 C         142.7177  138.7696  162.5573 C.ar    1  UNL1        0.0284
     14 C         143.9725  139.3503  163.1391 C.ar    1  UNL1        0.0032
     15 C         144.2590  139.2009  164.6039 C.ar    1  UNL1        0.0115
     16 C         143.2908  138.4709  165.4869 C.ar    1  UNL1        0.0585
     17 CL        143.5773  138.3215  166.9516 Cl      1  UNL1       -0.0822
     18 C         142.0361  137.8902  164.9051 C.ar    1  UNL1        0.0228
     19 C         141.7495  138.0395  163.4404 C.ar    1  UNL1        0.0599
     20 CL        140.4948  137.4588  162.8586 Cl      1  UNL1       -0.0822
     21 C         141.2039  141.1604  161.5612 C.ar    1  UNL1        0.0015
     22 C         142.0808  142.3347  161.8809 C.ar    1  UNL1        0.0009
     23 C         141.6104  143.3808  162.8476 C.ar    1  UNL1        0.0114
     24 C         140.2632  143.2525  163.4946 C.ar    1  UNL1        0.0577
     25 CL        139.7928  144.2986  164.4613 Cl      1  UNL1       -0.0822
     26 C         139.3863  142.0783  163.1749 C.ar    1  UNL1        0.0114
     27 C         139.8567  141.0322  162.2081 C.ar    1  UNL1        0.0009
     28 N         140.8146  140.5624  156.2001 N.am    1  UNL1       -0.2984
     29 C         139.3148  140.5467  156.1830 C.2     1  UNL1        0.2490
     30 O         138.5718  139.3356  156.6640 O.2     1  UNL1       -0.2700
     31 H         141.3022  141.3573  155.8844 H       1  UNL1        0.1500
     32 C         138.5578  141.7422  155.6849 C.ar    1  UNL1        0.0870
     33 C         137.3617  141.5567  154.7990 C.ar    1  UNL1        0.0076
     34 C         136.6047  142.7520  154.3009 C.ar    1  UNL1        0.0003
     35 C         137.0440  144.1328  154.6887 C.ar    1  UNL1        0.0031
     36 C         138.2401  144.3183  155.5746 C.ar    1  UNL1        0.0368
     37 C         138.9970  143.1230  156.0727 C.ar    1  UNL1        0.1380
     38 O         140.1932  143.3084  156.9586 O.3     1  UNL1       -0.5054
     39 H         140.4675  144.1710  157.2008 H       1  UNL1        0.2922
@<TRIPOS>BOND
     1     1     2    1
     2     2     3    1
     3     2     4    1
     4     4     5    1
     5     5    28    1
     6    28    29   am
     7    29    30    2
     8    29    32    1
     9    32    33   ar
    10    33    34   ar
    11    34    35   ar
    12    35    36   ar
    13    36    37   ar
    14    37    38    1
    15     5     6    1
    16     6     7   ar
    17     7     8   ar
    18     8    21    1
    19    21    22   ar
    20    22    23   ar
    21    23    24   ar
    22    24    25    1
    23    24    26   ar
    24    26    27   ar
    25     8     9   ar
    26     9    13    1
    27    13    14   ar
    28    14    15   ar
    29    15    16   ar
    30    16    17    1
    31    16    18   ar
    32    18    19   ar
    33    19    20    1
    34     9    10   ar
    35    10    11   ar
    36    11    12    1
    37    12     2    1
    38    37    32   ar
    39    11     6   ar
    40    27    21   ar
    41    19    13   ar
    42    28    31    1
    43    38    39    1
@<TRIPOS>MOLECULE
*****
 39 43 0 0 0
SMALL
GASTEIGER

@<TRIPOS>ATOM
      1 C         134.5379  140.5495  155.9387 C.3     1  UNL1        0.0437
      2 C         135.9734  140.9532  155.7755 C.3     1  UNL1        0.1368
      3 C         135.4495  141.2973  154.4127 C.3     1  UNL1        0.0437
      4 C         137.2268  141.4763  155.1390 C.3     1  UNL1        0.0643
      5 C         138.5057  141.5152  155.9220 C.3     1  UNL1        0.1023
      6 C         138.5311  141.0310  157.3414 C.ar    1  UNL1        0.0488
      7 C         139.8099  141.0699  158.1244 C.ar    1  UNL1        0.0034
      8 C         139.8353  140.5857  159.5438 C.ar    1  UNL1        0.0177
      9 C         138.5818  140.0625  160.1804 C.ar    1  UNL1        0.0851
     10 N         137.3029  140.0236  159.3974 N.ar    1  UNL1       -0.2119
     11 C         137.2776  140.5079  157.9779 C.ar    1  UNL1        0.2219
     12 O         135.9988  140.4690  157.1949 O.3     1  UNL1       -0.4676
     13 C         138.6072  139.5783  161.5998 C.ar    1  UNL1        0.0284
     14 C         138.9529  138.1496  161.8988 C.ar    1  UNL1        0.0032
     15 C         138.9783  137.6654  163.3183 C.ar    1  UNL1        0.0115
     16 C         138.6579  138.6098  164.4387 C.ar    1  UNL1        0.0585
     17 CL        138.6833  138.1256  165.8582 Cl      1  UNL1       -0.0822
     18 C         138.3122  140.0385  164.1397 C.ar    1  UNL1        0.0228
     19 C         138.2868  140.5227  162.7203 C.ar    1  UNL1        0.0599
     20 CL        137.9410  141.9514  162.4213 Cl      1  UNL1       -0.0822
     21 C         141.1141  140.6246  160.3268 C.ar    1  UNL1        0.0015
     22 C         141.4768  141.8512  161.1104 C.ar    1  UNL1        0.0009
     23 C         142.7556  141.8901  161.8934 C.ar    1  UNL1        0.0114
     24 C         143.6718  140.7024  161.8927 C.ar    1  UNL1        0.0577
     25 CL        144.9507  140.7413  162.6757 Cl      1  UNL1       -0.0822
     26 C         143.3092  139.4758  161.1092 C.ar    1  UNL1        0.0114
     27 C         142.0303  139.4369  160.3262 C.ar    1  UNL1        0.0009
     28 N         139.7592  142.0384  155.2855 N.am    1  UNL1       -0.2984
     29 C         140.0490  143.5100  155.2984 C.2     1  UNL1        0.2490
     30 O         139.0855  144.4586  155.9478 O.2     1  UNL1       -0.2700
     31 H         140.3916  141.4158  154.8592 H       1  UNL1        0.1500
     32 C         141.3026  144.0332  154.6618 C.ar    1  UNL1        0.0870
     33 C         142.6333  143.4517  155.0372 C.ar    1  UNL1        0.0076
     34 C         143.8868  143.9748  154.4007 C.ar    1  UNL1        0.0003
     35 C         143.8095  145.0794  153.3889 C.ar    1  UNL1        0.0031
     36 C         142.4787  145.6609  153.0136 C.ar    1  UNL1        0.0368
     37 C         141.2252  145.1378  153.6500 C.ar    1  UNL1        0.1380
     38 O         139.8945  145.7193  153.2747 O.3     1  UNL1       -0.5054
     39 H         139.8462  146.4093  152.6426 H       1  UNL1        0.2922
@<TRIPOS>BOND
     1     1     2    1
     2     2     3    1
     3     2     4    1
     4     4     5    1
     5     5    28    1
     6    28    29   am
     7    29    30    2
     8    29    32    1
     9    32    33   ar
    10    33    34   ar
    11    34    35   ar
    12    35    36   ar
    13    36    37   ar
    14    37    38    1
    15     5     6    1
    16     6     7   ar
    17     7     8   ar
    18     8    21    1
    19    21    22   ar
    20    22    23   ar
    21    23    24   ar
    22    24    25    1
    23    24    26   ar
    24    26    27   ar
    25     8     9   ar
    26     9    13    1
    27    13    14   ar
    28    14    15   ar
    29    15    16   ar
    30    16    17    1
    31    16    18   ar
    32    18    19   ar
    33    19    20    1
    34     9    10   ar
    35    10    11   ar
    36    11    12    1
    37    12     2    1
    38    37    32   ar
    39    11     6   ar
    40    27    21   ar
    41    19    13   ar
    42    28    31    1
    43    38    39    1
@<TRIPOS>MOLECULE
*****
 39 43 0 0 0
SMALL
GASTEIGER

@<TRIPOS>ATOM
      1 C         140.1275  147.1591  155.8857 C.3     1  UNL1        0.0437
      2 C         139.9716  145.6713  155.7757 C.3     1  UNL1        0.1368
      3 C         140.0551  146.0326  154.3222 C.3     1  UNL1        0.0437
      4 C         139.8447  144.3090  155.1609 C.3     1  UNL1        0.0643
      5 C         139.6884  143.1021  156.0378 C.3     1  UNL1        0.1023
      6 C         139.6590  143.2574  157.5294 C.ar    1  UNL1        0.0488
      7 C         139.5027  142.0505  158.4062 C.ar    1  UNL1        0.0034
      8 C         139.4733  142.2058  159.8979 C.ar    1  UNL1        0.0177
      9 C         139.6002  143.5682  160.5127 C.ar    1  UNL1        0.0851
     10 N         139.7565  144.7751  159.6358 N.ar    1  UNL1       -0.2119
     11 C         139.7859  144.6197  158.1442 C.ar    1  UNL1        0.2219
     12 O         139.9422  145.8267  157.2673 O.3     1  UNL1       -0.4676
     13 C         139.5708  143.7236  162.0043 C.ar    1  UNL1        0.0284
     14 C         138.2635  143.9244  162.7119 C.ar    1  UNL1        0.0032
     15 C         138.2342  144.0797  164.2036 C.ar    1  UNL1        0.0115
     16 C         139.5121  144.0343  164.9876 C.ar    1  UNL1        0.0585
     17 CL        139.4827  144.1896  166.4792 Cl      1  UNL1       -0.0822
     18 C         140.8194  143.8335  164.2801 C.ar    1  UNL1        0.0228
     19 C         140.8488  143.6781  162.7885 C.ar    1  UNL1        0.0599
     20 CL        142.1561  143.4773  162.0809 Cl      1  UNL1       -0.0822
     21 C         139.3170  140.9989  160.7747 C.ar    1  UNL1        0.0015
     22 C         140.5309  140.2814  161.2865 C.ar    1  UNL1        0.0009
     23 C         140.3746  139.0745  162.1633 C.ar    1  UNL1        0.0114
     24 C         139.0044  138.5850  162.5284 C.ar    1  UNL1        0.0577
     25 CL        138.8481  137.3781  163.4053 Cl      1  UNL1       -0.0822
     26 C         137.7907  139.3025  162.0166 C.ar    1  UNL1        0.0114
     27 C         137.9470  140.5094  161.1398 C.ar    1  UNL1        0.0009
     28 N         139.5615  141.7397  155.4229 N.am    1  UNL1       -0.2984
     29 C         138.2306  141.2651  154.9196 C.2     1  UNL1        0.2490
     30 O         137.0266  142.1527  155.0310 O.2     1  UNL1       -0.2700
     31 H         140.3517  141.1571  155.3498 H       1  UNL1        0.1500
     32 C         138.1037  139.9027  154.3047 C.ar    1  UNL1        0.0870
     33 C         137.5734  139.7561  152.9092 C.ar    1  UNL1        0.0076
     34 C         137.4465  138.3939  152.2944 C.ar    1  UNL1        0.0003
     35 C         137.8498  137.1782  153.0750 C.ar    1  UNL1        0.0031
     36 C         138.3801  137.3248  154.4705 C.ar    1  UNL1        0.0368
     37 C         138.5070  138.6870  155.0853 C.ar    1  UNL1        0.1380
     38 O         139.0373  138.8336  156.4808 O.3     1  UNL1       -0.5054
     39 H         139.2892  138.0742  156.9684 H       1  UNL1        0.2922
@<TRIPOS>BOND
     1     1     2    1
     2     2     3    1
     3     2     4    1
     4     4     5    1
     5     5    28    1
     6    28    29   am
     7    29    30    2
     8    29    32    1
     9    32    33   ar
    10    33    34   ar
    11    34    35   ar
    12    35    36   ar
    13    36    37   ar
    14    37    38    1
    15     5     6    1
    16     6     7   ar
    17     7     8   ar
    18     8    21    1
    19    21    22   ar
    20    22    23   ar
    21    23    24   ar
    22    24    25    1
    23    24    26   ar
    24    26    27   ar
    25     8     9   ar
    26     9    13    1
    27    13    14   ar
    28    14    15   ar
    29    15    16   ar
    30    16    17    1
    31    16    18   ar
    32    18    19   ar
    33    19    20    1
    34     9    10   ar
    35    10    11   ar
    36    11    12    1
    37    12     2    1
    38    37    32   ar
    39    11     6   ar
    40    27    21   ar
    41    19    13   ar
    42    28    31    1
    43    38    39    1
