@<TRIPOS>MOLECULE
*****
 31 35 0 0 0
SMALL
GASTEIGER

@<TRIPOS>ATOM
      1 C         143.5941  140.3269  160.0278 C.ar    1  UNL1        0.2326
      2 N         143.7136  139.1610  159.0917 N.ar    1  UNL1       -0.2080
      3 C         143.0021  139.5135  157.8191 C.ar    1  UNL1        0.1232
      4 C         142.7912  138.7532  156.5434 C.ar    1  UNL1        0.0741
      5 C         142.0211  139.3766  155.4172 C.ar    1  UNL1        0.0062
      6 C         141.4618  140.7604  155.5668 C.ar    1  UNL1        0.0034
      7 C         141.6727  141.5207  156.8425 C.ar    1  UNL1        0.0391
      8 C         142.4429  140.8973  157.9687 C.ar    1  UNL1        0.1649
      9 O         142.8087  141.4000  159.3337 O.2     1  UNL1       -0.4345
     10 C         143.9868  139.2563  162.3623 C.ar    1  UNL1        0.1432
     11 C         144.5532  139.3353  163.7490 C.ar    1  UNL1        0.0371
     12 C         145.2932  140.5640  164.1879 C.ar    1  UNL1        0.0031
     13 C         145.4669  141.7136  163.2402 C.ar    1  UNL1        0.0004
     14 C         144.9006  141.6346  161.8535 C.ar    1  UNL1        0.0077
     15 C         144.1605  140.4060  161.4146 C.ar    1  UNL1        0.0874
     16 C         141.7969  137.8614  162.2700 C.3     1  UNL1        0.2525
     17 O         143.2467  138.0276  161.9232 O.3     1  UNL1       -0.4713
     18 C         143.3505  137.3693  156.3938 C.2     1  UNL1        0.2474
     19 O         144.6894  137.1672  155.7486 O.2     1  UNL1       -0.2701
     20 N         142.5708  136.1877  156.8895 N.am    1  UNL1       -0.3024
     21 H         141.6920  136.3204  157.3130 H       1  UNL1        0.1497
     22 C         143.1300  134.8039  156.7400 C.3     1  UNL1        0.0745
     23 C         142.9808  134.0711  155.4396 C.3     1  UNL1        0.0356
     24 C         143.5400  132.6873  155.2901 C.3     1  UNL1        0.0591
     25 C         144.0992  131.3036  155.1406 C.3     1  UNL1        0.0161
     26 C         144.8076  130.6525  156.2913 C.3     1  UNL1        0.0028
     27 C         144.9569  131.3852  157.5916 C.3     1  UNL1        0.0161
     28 C         144.3977  132.7690  157.7412 C.3     1  UNL1        0.0591
     29 C         143.8384  134.1529  157.8907 C.3     1  UNL1        0.0356
     30 N         143.6892  133.4201  156.5904 N.3     1  UNL1       -0.2740
     31 C         143.4645  134.1397  156.8495 C.3     1  UNL1        0.0896
@<TRIPOS>BOND
     1    16    17    1
     2    17    10    1
     3    10    11   ar
     4    11    12   ar
     5    12    13   ar
     6    13    14   ar
     7    14    15   ar
     8    15     1    1
     9     1     2   ar
    10     2     3   ar
    11     3     4   ar
    12     4    18    1
    13    18    19    2
    14    18    20   am
    15    22    20    1
    16    22    23    1
    17    24    23    1
    18    24    25    1
    19    25    26    1
    20    26    27    1
    21    28    27    1
    22    28    29    1
    23    28    30    1
    24    30    31    1
    25     4     5   ar
    26     5     6   ar
    27     6     7   ar
    28     7     8   ar
    29     8     9   ar
    30    15    10   ar
    31     9     1   ar
    32     8     3   ar
    33    29    22    1
    34    30    24    1
    35    20    21    1
@<TRIPOS>MOLECULE
*****
 31 35 0 0 0
SMALL
GASTEIGER

@<TRIPOS>ATOM
      1 C         143.3350  134.6779  156.6457 C.ar    1  UNL1        0.2326
      2 N         143.0723  135.7417  157.6700 N.ar    1  UNL1       -0.2080
      3 C         142.8573  137.0383  156.9470 C.ar    1  UNL1        0.1232
      4 C         142.5600  138.4241  157.4382 C.ar    1  UNL1        0.0741
      5 C         142.3926  139.5474  156.4583 C.ar    1  UNL1        0.0062
      6 C         142.5224  139.2848  154.9872 C.ar    1  UNL1        0.0034
      7 C         142.8196  137.8991  154.4960 C.ar    1  UNL1        0.0391
      8 C         142.9871  136.7758  155.4759 C.ar    1  UNL1        0.1649
      9 O         143.2823  135.3170  155.2897 O.2     1  UNL1       -0.4345
     10 C         142.6727  132.1776  156.4006 C.ar    1  UNL1        0.1432
     11 C         142.9409  130.7291  156.6827 C.ar    1  UNL1        0.0371
     12 C         144.1398  130.3321  157.4920 C.ar    1  UNL1        0.0031
     13 C         145.0704  131.3837  158.0193 C.ar    1  UNL1        0.0004
     14 C         144.8022  132.8323  157.7372 C.ar    1  UNL1        0.0077
     15 C         143.6033  133.2293  156.9279 C.ar    1  UNL1        0.0874
     16 C         140.8326  131.5841  154.6650 C.3     1  UNL1        0.2525
     17 O         141.4737  132.5747  155.5913 O.3     1  UNL1       -0.4713
     18 C         142.4302  138.6866  158.9094 C.2     1  UNL1        0.2474
     19 O         141.7194  139.9161  159.3920 O.2     1  UNL1       -0.2701
     20 N         143.0113  137.7195  159.8979 N.am    1  UNL1       -0.3024
     21 H         143.4779  136.9126  159.5811 H       1  UNL1        0.1497
     22 C         142.8816  137.9820  161.3690 C.3     1  UNL1        0.0745
     23 C         141.6288  137.5874  162.0937 C.3     1  UNL1        0.0356
     24 C         141.4991  137.8498  163.5648 C.3     1  UNL1        0.0591
     25 C         141.3693  138.1122  165.0359 C.3     1  UNL1        0.0161
     26 C         142.4922  138.7693  165.7825 C.3     1  UNL1        0.0028
     27 C         143.7449  139.1638  165.0579 C.3     1  UNL1        0.0161
     28 C         143.8747  138.9014  163.5868 C.3     1  UNL1        0.0591
     29 C         144.0045  138.6390  162.1156 C.3     1  UNL1        0.0356
     30 N         142.7517  138.2444  162.8402 N.3     1  UNL1       -0.2740
     31 C         142.9950  138.1871  162.0832 C.3     1  UNL1        0.0896
@<TRIPOS>BOND
     1    16    17    1
     2    17    10    1
     3    10    11   ar
     4    11    12   ar
     5    12    13   ar
     6    13    14   ar
     7    14    15   ar
     8    15     1    1
     9     1     2   ar
    10     2     3   ar
    11     3     4   ar
    12     4    18    1
    13    18    19    2
    14    18    20   am
    15    22    20    1
    16    22    23    1
    17    24    23    1
    18    24    25    1
    19    25    26    1
    20    26    27    1
    21    28    27    1
    22    28    29    1
    23    28    30    1
    24    30    31    1
    25     4     5   ar
    26     5     6   ar
    27     6     7   ar
    28     7     8   ar
    29     8     9   ar
    30    15    10   ar
    31     9     1   ar
    32     8     3   ar
    33    29    22    1
    34    30    24    1
    35    20    21    1
@<TRIPOS>MOLECULE
*****
 31 35 0 0 0
SMALL
GASTEIGER

@<TRIPOS>ATOM
      1 C         141.3588  138.8310  160.3004 C.ar    1  UNL1        0.2326
      2 N         142.0162  138.0111  159.2301 N.ar    1  UNL1       -0.2080
      3 C         142.3168  138.9159  158.0720 C.ar    1  UNL1        0.1232
      4 C         142.9590  138.6621  156.7404 C.ar    1  UNL1        0.0741
      5 C         143.1296  139.7873  155.7634 C.ar    1  UNL1        0.0062
      6 C         142.6581  141.1664  156.1180 C.ar    1  UNL1        0.0034
      7 C         142.0159  141.4202  157.4496 C.ar    1  UNL1        0.0391
      8 C         141.8452  140.2949  158.4266 C.ar    1  UNL1        0.1649
      9 O         141.2532  140.2425  159.8038 O.2     1  UNL1       -0.4345
     10 C         141.8886  137.9160  162.6736 C.ar    1  UNL1        0.1432
     11 C         141.4194  137.4129  164.0065 C.ar    1  UNL1        0.0371
     12 C         139.9511  137.3216  164.2991 C.ar    1  UNL1        0.0031
     13 C         138.9520  137.7334  163.2588 C.ar    1  UNL1        0.0004
     14 C         139.4212  138.2365  161.9259 C.ar    1  UNL1        0.0077
     15 C         140.8895  138.3279  161.6333 C.ar    1  UNL1        0.0874
     16 C         144.1743  139.1121  162.9824 C.3     1  UNL1        0.2525
     17 O         143.3570  138.0074  162.3810 O.3     1  UNL1       -0.4713
     18 C         143.4305  137.2829  156.3858 C.2     1  UNL1        0.2474
     19 O         144.7139  137.1000  155.6312 O.2     1  UNL1       -0.2701
     20 N         142.6187  136.0868  156.7859 N.am    1  UNL1       -0.3024
     21 H         141.7764  136.2068  157.2812 H       1  UNL1        0.1497
     22 C         143.0902  134.7077  156.4314 C.3     1  UNL1        0.0745
     23 C         142.6838  134.0883  155.1270 C.3     1  UNL1        0.0356
     24 C         143.1553  132.7092  154.7724 C.3     1  UNL1        0.0591
     25 C         143.6268  131.3301  154.4179 C.3     1  UNL1        0.0161
     26 C         144.5046  130.5703  155.3677 C.3     1  UNL1        0.0028
     27 C         144.9110  131.1896  156.6720 C.3     1  UNL1        0.0161
     28 C         144.4395  132.5687  157.0266 C.3     1  UNL1        0.0591
     29 C         143.9680  133.9478  157.3812 C.3     1  UNL1        0.0356
     30 N         143.5617  133.3285  156.0768 N.3     1  UNL1       -0.2740
     31 C         143.4139  134.0292  156.4270 C.3     1  UNL1        0.0896
@<TRIPOS>BOND
     1    16    17    1
     2    17    10    1
     3    10    11   ar
     4    11    12   ar
     5    12    13   ar
     6    13    14   ar
     7    14    15   ar
     8    15     1    1
     9     1     2   ar
    10     2     3   ar
    11     3     4   ar
    12     4    18    1
    13    18    19    2
    14    18    20   am
    15    22    20    1
    16    22    23    1
    17    24    23    1
    18    24    25    1
    19    25    26    1
    20    26    27    1
    21    28    27    1
    22    28    29    1
    23    28    30    1
    24    30    31    1
    25     4     5   ar
    26     5     6   ar
    27     6     7   ar
    28     7     8   ar
    29     8     9   ar
    30    15    10   ar
    31     9     1   ar
    32     8     3   ar
    33    29    22    1
    34    30    24    1
    35    20    21    1
@<TRIPOS>MOLECULE
*****
 31 35 0 0 0
SMALL
GASTEIGER

@<TRIPOS>ATOM
      1 C         141.3413  138.8180  160.4322 C.ar    1  UNL1        0.2326
      2 N         141.9927  137.9949  159.3606 N.ar    1  UNL1       -0.2080
      3 C         142.2490  138.8871  158.1823 C.ar    1  UNL1        0.1232
      4 C         142.8676  138.6254  156.8411 C.ar    1  UNL1        0.0741
      5 C         142.9933  139.7382  155.8431 C.ar    1  UNL1        0.0062
      6 C         142.5004  141.1126  156.1865 C.ar    1  UNL1        0.0034
      7 C         141.8818  141.3743  157.5277 C.ar    1  UNL1        0.0391
      8 C         141.7561  140.2615  158.5256 C.ar    1  UNL1        0.1649
      9 O         141.1951  140.2188  159.9161 O.2     1  UNL1       -0.4345
     10 C         139.4554  138.1201  162.0772 C.ar    1  UNL1        0.1432
     11 C         139.0256  137.6288  163.4277 C.ar    1  UNL1        0.0371
     12 C         140.0521  137.3439  164.4837 C.ar    1  UNL1        0.0031
     13 C         141.5083  137.5504  164.1892 C.ar    1  UNL1        0.0004
     14 C         141.9381  138.0417  162.8387 C.ar    1  UNL1        0.0077
     15 C         140.9116  138.3266  161.7827 C.ar    1  UNL1        0.0874
     16 C         137.7210  139.7274  161.0007 C.3     1  UNL1        0.2525
     17 O         138.4288  138.4051  161.0212 O.3     1  UNL1       -0.4713
     18 C         143.3605  137.2509  156.4978 C.2     1  UNL1        0.2474
     19 O         144.6252  137.0829  155.7090 O.2     1  UNL1       -0.2701
     20 N         142.5887  136.0443  156.9434 N.am    1  UNL1       -0.3024
     21 H         141.7586  136.1546  157.4611 H       1  UNL1        0.1497
     22 C         143.0815  134.6698  156.6001 C.3     1  UNL1        0.0745
     23 C         142.7501  134.0652  155.2680 C.3     1  UNL1        0.0356
     24 C         143.2429  132.6907  154.9247 C.3     1  UNL1        0.0591
     25 C         143.7358  131.3162  154.5815 C.3     1  UNL1        0.0161
     26 C         144.5601  130.5463  155.5704 C.3     1  UNL1        0.0028
     27 C         144.8915  131.1509  156.9025 C.3     1  UNL1        0.0161
     28 C         144.3987  132.5254  157.2457 C.3     1  UNL1        0.0591
     29 C         143.9058  133.9000  157.5890 C.3     1  UNL1        0.0356
     30 N         143.5744  133.2953  156.2568 N.3     1  UNL1       -0.2740
     31 C         143.4060  133.9918  156.6062 C.3     1  UNL1        0.0896
@<TRIPOS>BOND
     1    16    17    1
     2    17    10    1
     3    10    11   ar
     4    11    12   ar
     5    12    13   ar
     6    13    14   ar
     7    14    15   ar
     8    15     1    1
     9     1     2   ar
    10     2     3   ar
    11     3     4   ar
    12     4    18    1
    13    18    19    2
    14    18    20   am
    15    22    20    1
    16    22    23    1
    17    24    23    1
    18    24    25    1
    19    25    26    1
    20    26    27    1
    21    28    27    1
    22    28    29    1
    23    28    30    1
    24    30    31    1
    25     4     5   ar
    26     5     6   ar
    27     6     7   ar
    28     7     8   ar
    29     8     9   ar
    30    15    10   ar
    31     9     1   ar
    32     8     3   ar
    33    29    22    1
    34    30    24    1
    35    20    21    1
@<TRIPOS>MOLECULE
*****
 31 35 0 0 0
SMALL
GASTEIGER

@<TRIPOS>ATOM
      1 C         134.1757  140.2241  156.4496 C.ar    1  UNL1        0.2326
      2 N         135.3058  140.2308  157.4360 N.ar    1  UNL1       -0.2080
      3 C         136.5535  140.6362  156.7086 C.ar    1  UNL1        0.1232
      4 C         137.9701  140.8148  157.1683 C.ar    1  UNL1        0.0741
      5 C         139.0277  141.2372  156.1921 C.ar    1  UNL1        0.0062
      6 C         138.6687  141.4811  154.7563 C.ar    1  UNL1        0.0034
      7 C         137.2521  141.3025  154.2966 C.ar    1  UNL1        0.0391
      8 C         136.1945  140.8800  155.2728 C.ar    1  UNL1        0.1649
      9 O         134.7250  140.6253  155.1127 O.2     1  UNL1       -0.4345
     10 C         131.6367  140.6428  156.0917 C.ar    1  UNL1        0.1432
     11 C         130.2082  140.2958  156.3898 C.ar    1  UNL1        0.0371
     12 C         129.8901  139.1831  157.3441 C.ar    1  UNL1        0.0031
     13 C         131.0006  138.4173  158.0002 C.ar    1  UNL1        0.0004
     14 C         132.4291  138.7643  157.7021 C.ar    1  UNL1        0.0077
     15 C         132.7471  139.8770  156.7478 C.ar    1  UNL1        0.0874
     16 C         131.0652  142.0079  153.9563 C.3     1  UNL1        0.2525
     17 O         131.9548  141.7556  155.1374 O.3     1  UNL1       -0.4713
     18 C         138.3290  140.5709  158.6042 C.2     1  UNL1        0.2474
     19 O         139.6546  141.0309  159.1344 O.2     1  UNL1       -0.2701
     20 N         137.3623  139.8671  159.5098 N.am    1  UNL1       -0.3024
     21 H         136.4923  139.5652  159.1618 H       1  UNL1        0.1497
     22 C         137.7212  139.6232  160.9456 C.3     1  UNL1        0.0745
     23 C         137.5312  140.7106  161.9613 C.3     1  UNL1        0.0356
     24 C         137.8901  140.4667  163.3972 C.3     1  UNL1        0.0591
     25 C         138.2489  140.2229  164.8330 C.3     1  UNL1        0.0161
     26 C         138.7979  138.8917  165.2532 C.3     1  UNL1        0.0028
     27 C         138.9879  137.8043  164.2376 C.3     1  UNL1        0.0161
     28 C         138.6290  138.0482  162.8018 C.3     1  UNL1        0.0591
     29 C         138.2701  138.2920  161.3658 C.3     1  UNL1        0.0356
     30 N         138.0801  139.3794  162.3816 N.3     1  UNL1       -0.2740
     31 C         137.9499  139.3256  161.5969 C.3     1  UNL1        0.0896
@<TRIPOS>BOND
     1    16    17    1
     2    17    10    1
     3    10    11   ar
     4    11    12   ar
     5    12    13   ar
     6    13    14   ar
     7    14    15   ar
     8    15     1    1
     9     1     2   ar
    10     2     3   ar
    11     3     4   ar
    12     4    18    1
    13    18    19    2
    14    18    20   am
    15    22    20    1
    16    22    23    1
    17    24    23    1
    18    24    25    1
    19    25    26    1
    20    26    27    1
    21    28    27    1
    22    28    29    1
    23    28    30    1
    24    30    31    1
    25     4     5   ar
    26     5     6   ar
    27     6     7   ar
    28     7     8   ar
    29     8     9   ar
    30    15    10   ar
    31     9     1   ar
    32     8     3   ar
    33    29    22    1
    34    30    24    1
    35    20    21    1
@<TRIPOS>MOLECULE
*****
 31 35 0 0 0
SMALL
GASTEIGER

@<TRIPOS>ATOM
      1 C         142.9069  135.5773  155.9858 C.ar    1  UNL1        0.2326
      2 N         142.5980  136.4722  157.1493 N.ar    1  UNL1       -0.2080
      3 C         143.1759  137.8257  156.8593 C.ar    1  UNL1        0.1232
      4 C         143.1817  139.1038  157.6444 C.ar    1  UNL1        0.0741
      5 C         143.8535  140.3235  157.0869 C.ar    1  UNL1        0.0062
      6 C         144.5195  140.2652  155.7441 C.ar    1  UNL1        0.0034
      7 C         144.5137  138.9871  154.9590 C.ar    1  UNL1        0.0391
      8 C         143.8419  137.7674  155.5165 C.ar    1  UNL1        0.1649
      9 O         143.6757  136.3778  154.9767 O.2     1  UNL1       -0.4345
     10 C         143.1728  133.0983  156.7164 C.ar    1  UNL1        0.1432
     11 C         142.7817  131.6562  156.5851 C.ar    1  UNL1        0.0371
     12 C         141.7334  131.2510  155.5916 C.ar    1  UNL1        0.0031
     13 C         141.0763  132.2878  154.7296 C.ar    1  UNL1        0.0004
     14 C         141.4675  133.7299  154.8610 C.ar    1  UNL1        0.0077
     15 C         142.5157  134.1352  155.8544 C.ar    1  UNL1        0.0874
     16 C         145.2920  132.5319  158.1087 C.3     1  UNL1        0.2525
     17 O         144.2211  133.5036  157.7099 O.3     1  UNL1       -0.4713
     18 C         142.5157  139.1621  158.9873 C.2     1  UNL1        0.2474
     19 O         142.0156  140.4720  159.5202 O.2     1  UNL1       -0.2701
     20 N         142.3497  137.9104  159.7971 N.am    1  UNL1       -0.3024
     21 H         142.6780  137.0507  159.4473 H       1  UNL1        0.1497
     22 C         141.6837  137.9687  161.1398 C.3     1  UNL1        0.0745
     23 C         140.1873  138.0119  161.2336 C.3     1  UNL1        0.0356
     24 C         139.5213  138.0702  162.5763 C.3     1  UNL1        0.0591
     25 C         138.8553  138.1285  163.9190 C.3     1  UNL1        0.0161
     26 C         139.6857  138.1435  165.1681 C.3     1  UNL1        0.0028
     27 C         141.1821  138.1002  165.0744 C.3     1  UNL1        0.0161
     28 C         141.8481  138.0420  163.7317 C.3     1  UNL1        0.0591
     29 C         142.5142  137.9837  162.3889 C.3     1  UNL1        0.0356
     30 N         141.0177  138.0270  162.4826 N.3     1  UNL1       -0.2740
     31 C         141.5339  137.9948  161.8760 C.3     1  UNL1        0.0896
@<TRIPOS>BOND
     1    16    17    1
     2    17    10    1
     3    10    11   ar
     4    11    12   ar
     5    12    13   ar
     6    13    14   ar
     7    14    15   ar
     8    15     1    1
     9     1     2   ar
    10     2     3   ar
    11     3     4   ar
    12     4    18    1
    13    18    19    2
    14    18    20   am
    15    22    20    1
    16    22    23    1
    17    24    23    1
    18    24    25    1
    19    25    26    1
    20    26    27    1
    21    28    27    1
    22    28    29    1
    23    28    30    1
    24    30    31    1
    25     4     5   ar
    26     5     6   ar
    27     6     7   ar
    28     7     8   ar
    29     8     9   ar
    30    15    10   ar
    31     9     1   ar
    32     8     3   ar
    33    29    22    1
    34    30    24    1
    35    20    21    1
@<TRIPOS>MOLECULE
*****
 31 35 0 0 0
SMALL
GASTEIGER

@<TRIPOS>ATOM
      1 C         134.7382  140.6191  155.8068 C.ar    1  UNL1        0.2326
      2 N         135.7834  140.5348  156.8793 N.ar    1  UNL1       -0.2080
      3 C         137.1279  140.6686  156.2277 C.ar    1  UNL1        0.1232
      4 C         138.5197  140.6600  156.7872 C.ar    1  UNL1        0.0741
      5 C         139.6971  140.8184  155.8715 C.ar    1  UNL1        0.0062
      6 C         139.4828  140.9854  154.3963 C.ar    1  UNL1        0.0034
      7 C         138.0910  140.9941  153.8369 C.ar    1  UNL1        0.0391
      8 C         136.9136  140.8357  154.7526 C.ar    1  UNL1        0.1649
      9 O         135.4367  140.8051  154.4924 O.2     1  UNL1       -0.4345
     10 C         132.6816  139.4687  156.9010 C.ar    1  UNL1        0.1432
     11 C         131.1984  139.3822  157.1067 C.ar    1  UNL1        0.0371
     12 C         130.2883  140.3596  156.4238 C.ar    1  UNL1        0.0031
     13 C         130.8614  141.4235  155.5352 C.ar    1  UNL1        0.0004
     14 C         132.3447  141.5100  155.3295 C.ar    1  UNL1        0.0077
     15 C         133.2548  140.5326  156.0124 C.ar    1  UNL1        0.0874
     16 C         133.5631  138.3573  159.0777 C.3     1  UNL1        0.2525
     17 O         133.5918  138.4913  157.5840 O.3     1  UNL1       -0.4713
     18 C         138.7340  140.4930  158.2624 C.2     1  UNL1        0.2474
     19 O         140.0496  140.8697  158.8766 O.2     1  UNL1       -0.2701
     20 N         137.6326  139.9492  159.1234 N.am    1  UNL1       -0.3024
     21 H         136.7691  139.7019  158.7203 H       1  UNL1        0.1497
     22 C         137.8468  139.7821  160.5986 C.3     1  UNL1        0.0745
     23 C         137.6023  140.9345  161.5272 C.3     1  UNL1        0.0356
     24 C         137.8165  140.7675  163.0024 C.3     1  UNL1        0.0591
     25 C         138.0308  140.6004  164.4775 C.3     1  UNL1        0.0161
     26 C         138.4895  139.2810  165.0241 C.3     1  UNL1        0.0028
     27 C         138.7341  138.1287  164.0956 C.3     1  UNL1        0.0161
     28 C         138.5199  138.2958  162.6204 C.3     1  UNL1        0.0591
     29 C         138.3056  138.4628  161.1451 C.3     1  UNL1        0.0356
     30 N         138.0611  139.6151  162.0738 N.3     1  UNL1       -0.2740
     31 C         138.0028  139.5178  161.2848 C.3     1  UNL1        0.0896
@<TRIPOS>BOND
     1    16    17    1
     2    17    10    1
     3    10    11   ar
     4    11    12   ar
     5    12    13   ar
     6    13    14   ar
     7    14    15   ar
     8    15     1    1
     9     1     2   ar
    10     2     3   ar
    11     3     4   ar
    12     4    18    1
    13    18    19    2
    14    18    20   am
    15    22    20    1
    16    22    23    1
    17    24    23    1
    18    24    25    1
    19    25    26    1
    20    26    27    1
    21    28    27    1
    22    28    29    1
    23    28    30    1
    24    30    31    1
    25     4     5   ar
    26     5     6   ar
    27     6     7   ar
    28     7     8   ar
    29     8     9   ar
    30    15    10   ar
    31     9     1   ar
    32     8     3   ar
    33    29    22    1
    34    30    24    1
    35    20    21    1
@<TRIPOS>MOLECULE
*****
 31 35 0 0 0
SMALL
GASTEIGER

@<TRIPOS>ATOM
      1 C         143.2381  139.7082  160.8402 C.ar    1  UNL1        0.2326
      2 N         143.2995  138.7942  159.6524 N.ar    1  UNL1       -0.2080
      3 C         143.3722  139.6431  158.4178 C.ar    1  UNL1        0.1232
      4 C         143.4512  139.2919  156.9616 C.ar    1  UNL1        0.0741
      5 C         143.5138  140.3792  155.9302 C.ar    1  UNL1        0.0062
      6 C         143.4973  141.8177  156.3550 C.ar    1  UNL1        0.0034
      7 C         143.4182  142.1688  157.8112 C.ar    1  UNL1        0.0391
      8 C         143.3557  141.0815  158.8425 C.ar    1  UNL1        0.1649
      9 O         143.2728  141.1218  160.3397 O.2     1  UNL1       -0.4345
     10 C         144.1922  139.7485  163.2565 C.ar    1  UNL1        0.1432
     11 C         144.1105  139.3236  164.6926 C.ar    1  UNL1        0.0371
     12 C         142.9929  138.4332  165.1489 C.ar    1  UNL1        0.0031
     13 C         141.9570  137.9678  164.1689 C.ar    1  UNL1        0.0004
     14 C         142.0387  138.3928  162.7327 C.ar    1  UNL1        0.0077
     15 C         143.1564  139.2831  162.2765 C.ar    1  UNL1        0.0874
     16 C         145.7411  141.7969  163.6506 C.3     1  UNL1        0.2525
     17 O         145.3099  140.6389  162.8002 O.3     1  UNL1       -0.4713
     18 C         143.4677  137.8533  156.5368 C.2     1  UNL1        0.2474
     19 O         144.5047  137.3695  155.5670 O.2     1  UNL1       -0.2701
     20 N         142.4472  136.8986  157.0819 N.am    1  UNL1       -0.3024
     21 H         141.7666  137.2162  157.7185 H       1  UNL1        0.1497
     22 C         142.4637  135.4602  156.6572 C.3     1  UNL1        0.0745
     23 C         143.3793  134.4872  157.3392 C.3     1  UNL1        0.0356
     24 C         143.3957  133.0487  156.9145 C.3     1  UNL1        0.0591
     25 C         143.4122  131.6102  156.4898 C.3     1  UNL1        0.0161
     26 C         142.5130  131.1446  155.3831 C.3     1  UNL1        0.0028
     27 C         141.5974  132.1175  154.7011 C.3     1  UNL1        0.0161
     28 C         141.5810  133.5560  155.1259 C.3     1  UNL1        0.0591
     29 C         141.5645  134.9945  155.5506 C.3     1  UNL1        0.0356
     30 N         142.4802  134.0216  156.2325 N.3     1  UNL1       -0.2740
     31 C         142.3369  134.8010  156.3187 C.3     1  UNL1        0.0896
@<TRIPOS>BOND
     1    16    17    1
     2    17    10    1
     3    10    11   ar
     4    11    12   ar
     5    12    13   ar
     6    13    14   ar
     7    14    15   ar
     8    15     1    1
     9     1     2   ar
    10     2     3   ar
    11     3     4   ar
    12     4    18    1
    13    18    19    2
    14    18    20   am
    15    22    20    1
    16    22    23    1
    17    24    23    1
    18    24    25    1
    19    25    26    1
    20    26    27    1
    21    28    27    1
    22    28    29    1
    23    28    30    1
    24    30    31    1
    25     4     5   ar
    26     5     6   ar
    27     6     7   ar
    28     7     8   ar
    29     8     9   ar
    30    15    10   ar
    31     9     1   ar
    32     8     3   ar
    33    29    22    1
    34    30    24    1
    35    20    21    1
@<TRIPOS>MOLECULE
*****
 31 35 0 0 0
SMALL
GASTEIGER

@<TRIPOS>ATOM
      1 C         139.5020  143.2832  160.9582 C.ar    1  UNL1        0.2326
      2 N         139.6626  144.2450  159.8185 N.ar    1  UNL1       -0.2080
      3 C         139.8180  143.4476  158.5574 C.ar    1  UNL1        0.1232
      4 C         140.0100  143.8582  157.1276 C.ar    1  UNL1        0.0741
      5 C         140.1373  142.8141  156.0581 C.ar    1  UNL1        0.0062
      6 C         140.0727  141.3596  156.4185 C.ar    1  UNL1        0.0034
      7 C         139.8807  140.9490  157.8484 C.ar    1  UNL1        0.0391
      8 C         139.7534  141.9930  158.9179 C.ar    1  UNL1        0.1649
      9 O         139.5580  141.8914  160.4016 O.2     1  UNL1       -0.4345
     10 C         140.5010  143.6880  163.3222 C.ar    1  UNL1        0.1432
     11 C         140.3167  144.0537  164.7652 C.ar    1  UNL1        0.0371
     12 C         138.9489  144.3803  165.2872 C.ar    1  UNL1        0.0031
     13 C         137.7656  144.3412  164.3663 C.ar    1  UNL1        0.0004
     14 C         137.9499  143.9755  162.9234 C.ar    1  UNL1        0.0077
     15 C         139.3176  143.6489  162.4013 C.ar    1  UNL1        0.0874
     16 C         142.7495  144.4534  162.2694 C.3     1  UNL1        0.2525
     17 O         141.8688  143.3613  162.8000 O.3     1  UNL1       -0.4713
     18 C         140.0746  145.3128  156.7672 C.2     1  UNL1        0.2474
     19 O         141.1862  146.1684  157.2984 O.2     1  UNL1       -0.2701
     20 N         139.0276  145.9118  155.8755 N.am    1  UNL1       -0.3024
     21 H         138.2981  145.3502  155.5269 H       1  UNL1        0.1497
     22 C         139.0922  147.3664  155.5151 C.3     1  UNL1        0.0745
     23 C         139.7348  147.7925  154.2284 C.3     1  UNL1        0.0356
     24 C         139.7994  149.2471  153.8680 C.3     1  UNL1        0.0591
     25 C         139.8640  150.7017  153.5075 C.3     1  UNL1        0.0161
     26 C         139.2861  151.7302  154.4338 C.3     1  UNL1        0.0028
     27 C         138.6435  151.3042  155.7205 C.3     1  UNL1        0.0161
     28 C         138.5789  149.8497  156.0809 C.3     1  UNL1        0.0591
     29 C         138.5143  148.3950  156.4414 C.3     1  UNL1        0.0356
     30 N         139.1569  148.8211  155.1546 N.3     1  UNL1       -0.2740
     31 C         139.0329  148.1157  155.5048 C.3     1  UNL1        0.0896
@<TRIPOS>BOND
     1    16    17    1
     2    17    10    1
     3    10    11   ar
     4    11    12   ar
     5    12    13   ar
     6    13    14   ar
     7    14    15   ar
     8    15     1    1
     9     1     2   ar
    10     2     3   ar
    11     3     4   ar
    12     4    18    1
    13    18    19    2
    14    18    20   am
    15    22    20    1
    16    22    23    1
    17    24    23    1
    18    24    25    1
    19    25    26    1
    20    26    27    1
    21    28    27    1
    22    28    29    1
    23    28    30    1
    24    30    31    1
    25     4     5   ar
    26     5     6   ar
    27     6     7   ar
    28     7     8   ar
    29     8     9   ar
    30    15    10   ar
    31     9     1   ar
    32     8     3   ar
    33    29    22    1
    34    30    24    1
    35    20    21    1
