@<TRIPOS>MOLECULE
*****
 33 35 0 0 0
SMALL
GASTEIGER

@<TRIPOS>ATOM
      1 C         140.8362  140.4453  168.6778 C.ar    1  UNL1        0.0764
      2 C         140.0157  139.9346  167.5306 C.ar    1  UNL1        0.0522
      3 C         138.6152  139.4517  167.7666 C.ar    1  UNL1        0.1515
      4 N         138.0354  139.4794  169.1497 N.ar    1  UNL1       -0.1329
      5 N         138.8559  139.9900  170.2968 N.ar    1  UNL1       -0.1409
      6 C         140.2563  140.4730  170.0609 C.ar    1  UNL1        0.1691
      7 C         141.0768  140.9836  171.2081 C.2     1  UNL1        0.2635
      8 N         142.3776  140.3213  171.5532 N.am    1  UNL1       -0.3240
      9 O         140.5964  142.1567  172.0102 O.2     1  UNL1       -0.2686
     10 H         142.6929  139.5515  171.0267 H       1  UNL1        0.1453
     11 H         142.9161  140.6565  172.3061 H       1  UNL1        0.1453
     12 N         142.2365  140.9282  168.4419 N.pl3   1  UNL1       -0.2965
     13 H         142.7205  141.4027  169.1560 H       1  UNL1        0.1537
     14 C         143.9434  141.6098  164.9245 C.ar    1  UNL1        0.0604
     15 C         144.2258  140.2085  164.4701 C.ar    1  UNL1        0.0148
     16 C         143.8451  139.0470  165.3397 C.ar    1  UNL1        0.0041
     17 C         143.1820  139.2869  166.6636 C.ar    1  UNL1        0.0344
     18 C         142.8996  140.6883  167.1179 C.ar    1  UNL1        0.1318
     19 N         143.2804  141.8497  166.2484 N.ar    1  UNL1       -0.2349
     20 C         144.3241  142.7713  164.0549 C.3     1  UNL1        0.0459
     21 C         143.2205  145.1034  163.7497 C.3     1  UNL1        0.0004
     22 C         144.0974  144.1740  164.5354 C.3     1  UNL1        0.0063
     23 N         137.7947  138.9410  166.6194 N.pl3   1  UNL1       -0.3170
     24 H         136.8528  138.6917  166.7604 H       1  UNL1        0.1482
     25 C         138.4094  138.8102  165.2573 C.3     1  UNL1        0.0845
     26 C         139.1606  137.5649  164.8899 C.3     1  UNL1        0.0209
     27 C         139.7752  137.4342  163.5279 C.3     1  UNL1        0.0018
     28 C         139.6386  138.5487  162.5332 C.3     1  UNL1        0.0015
     29 C         138.8874  139.7939  162.9007 C.3     1  UNL1        0.0172
     30 C         138.2728  139.9247  164.2627 C.3     1  UNL1        0.0689
     31 N         137.5216  141.1700  164.6302 N.3     1  UNL1       -0.3209
     32 H         137.1744  141.0881  165.5858 H       1  UNL1        0.1189
     33 H         136.7354  141.2935  163.9922 H       1  UNL1        0.1189
@<TRIPOS>BOND
     1    21    22    1
     2    22    20    1
     3    20    14    1
     4    14    15   ar
     5    15    16   ar
     6    16    17   ar
     7    17    18   ar
     8    18    12    1
     9    12     1    1
    10     1     2   ar
    11     2     3   ar
    12     3    23    1
    13    25    23    1
    14    25    26    1
    15    26    27    1
    16    27    28    1
    17    28    29    1
    18    29    30    1
    19    30    31    1
    20     3     4   ar
    21     4     5   ar
    22     5     6   ar
    23     6     7    1
    24     7     8   am
    25     7     9    2
    26    18    19   ar
    27    19    14   ar
    28     6     1   ar
    29    30    25    1
    30    12    13    1
    31    23    24    1
    32    31    32    1
    33    31    33    1
    34     8    10    1
    35     8    11    1
@<TRIPOS>MOLECULE
*****
 33 35 0 0 0
SMALL
GASTEIGER

@<TRIPOS>ATOM
      1 C         140.2906  140.0082  166.9692 C.ar    1  UNL1        0.0764
      2 C         140.0398  139.2606  165.6932 C.ar    1  UNL1        0.0522
      3 C         138.8275  138.3870  165.5616 C.ar    1  UNL1        0.1515
      4 N         137.8660  138.2611  166.7060 N.ar    1  UNL1       -0.1329
      5 N         138.1168  139.0087  167.9820 N.ar    1  UNL1       -0.1409
      6 C         139.3290  139.8822  168.1136 C.ar    1  UNL1        0.1691
      7 C         139.5798  140.6298  169.3896 C.2     1  UNL1        0.2635
      8 N         139.4355  139.9311  170.7090 N.am    1  UNL1       -0.3240
      9 O         139.9748  142.0763  169.3461 O.2     1  UNL1       -0.2686
     10 H         139.1763  138.9818  170.7375 H       1  UNL1        0.1453
     11 H         139.6001  140.4218  171.5465 H       1  UNL1        0.1453
     12 N         141.5028  140.8817  167.1008 N.pl3   1  UNL1       -0.2965
     13 H         142.1600  140.7077  167.8129 H       1  UNL1        0.1537
     14 C         140.7523  143.9621  164.7137 C.ar    1  UNL1        0.0604
     15 C         142.1356  144.2979  164.2409 C.ar    1  UNL1        0.0148
     16 C         143.3080  143.4950  164.7214 C.ar    1  UNL1        0.0041
     17 C         143.0971  142.3563  165.6746 C.ar    1  UNL1        0.0344
     18 C         141.7138  142.0205  166.1475 C.ar    1  UNL1        0.1318
     19 N         140.5414  142.8234  165.6670 N.ar    1  UNL1       -0.2349
     20 C         139.5799  144.7650  164.2333 C.3     1  UNL1        0.0459
     21 C         137.7253  143.1768  163.3454 C.3     1  UNL1        0.0004
     22 C         138.1932  144.2022  164.3351 C.3     1  UNL1        0.0063
     23 N         138.5767  137.6394  164.2856 N.pl3   1  UNL1       -0.3170
     24 H         138.1942  136.7326  164.3134 H       1  UNL1        0.1482
     25 C         138.9088  138.2733  162.9673 C.3     1  UNL1        0.0845
     26 C         137.9793  139.2857  162.3666 C.3     1  UNL1        0.0209
     27 C         138.3113  139.9196  161.0482 C.3     1  UNL1        0.0018
     28 C         139.5730  139.5411  160.3307 C.3     1  UNL1        0.0015
     29 C         140.5026  138.5286  160.9314 C.3     1  UNL1        0.0172
     30 C         140.1705  137.8947  162.2497 C.3     1  UNL1        0.0689
     31 N         141.1001  136.8823  162.8505 N.3     1  UNL1       -0.3209
     32 H         140.7208  136.5583  163.7402 H       1  UNL1        0.1189
     33 H         142.0134  137.3090  163.0054 H       1  UNL1        0.1189
@<TRIPOS>BOND
     1    21    22    1
     2    22    20    1
     3    20    14    1
     4    14    15   ar
     5    15    16   ar
     6    16    17   ar
     7    17    18   ar
     8    18    12    1
     9    12     1    1
    10     1     2   ar
    11     2     3   ar
    12     3    23    1
    13    25    23    1
    14    25    26    1
    15    26    27    1
    16    27    28    1
    17    28    29    1
    18    29    30    1
    19    30    31    1
    20     3     4   ar
    21     4     5   ar
    22     5     6   ar
    23     6     7    1
    24     7     8   am
    25     7     9    2
    26    18    19   ar
    27    19    14   ar
    28     6     1   ar
    29    30    25    1
    30    12    13    1
    31    23    24    1
    32    31    32    1
    33    31    33    1
    34     8    10    1
    35     8    11    1
@<TRIPOS>MOLECULE
*****
 33 35 0 0 0
SMALL
GASTEIGER

@<TRIPOS>ATOM
      1 C         141.2046  140.5778  168.4352 C.ar    1  UNL1        0.0764
      2 C         140.2979  140.1440  167.3217 C.ar    1  UNL1        0.0522
      3 C         138.9239  139.6277  167.6314 C.ar    1  UNL1        0.1515
      4 N         138.4567  139.5452  169.0543 N.ar    1  UNL1       -0.1329
      5 N         139.3634  139.9790  170.1678 N.ar    1  UNL1       -0.1409
      6 C         140.7373  140.4953  169.8582 C.ar    1  UNL1        0.1691
      7 C         141.6440  140.9291  170.9716 C.2     1  UNL1        0.2635
      8 N         142.8503  140.1083  171.3195 N.am    1  UNL1       -0.3240
      9 O         141.3443  142.1838  171.7372 O.2     1  UNL1       -0.2686
     10 H         143.0470  139.2848  170.8171 H       1  UNL1        0.1453
     11 H         143.4454  140.3930  172.0503 H       1  UNL1        0.1453
     12 N         142.5784  141.0941  168.1256 N.pl3   1  UNL1       -0.2965
     13 H         143.2057  141.2940  168.8577 H       1  UNL1        0.1537
     14 C         143.7946  140.3432  164.4233 C.ar    1  UNL1        0.0604
     15 C         143.8332  141.7292  163.8510 C.ar    1  UNL1        0.0148
     16 C         143.4535  142.9035  164.7036 C.ar    1  UNL1        0.0041
     17 C         143.0353  142.6918  166.1285 C.ar    1  UNL1        0.0344
     18 C         142.9967  141.3058  166.7007 C.ar    1  UNL1        0.1318
     19 N         143.3763  140.1315  165.8481 N.ar    1  UNL1       -0.2349
     20 C         144.1742  139.1689  163.5707 C.3     1  UNL1        0.0459
     21 C         143.9001  137.8236  161.3651 C.3     1  UNL1        0.0004
     22 C         143.4078  138.8745  162.3154 C.3     1  UNL1        0.0063
     23 N         138.0172  139.1938  166.5179 N.pl3   1  UNL1       -0.3170
     24 H         137.0553  139.0695  166.6865 H       1  UNL1        0.1482
     25 C         138.5762  138.9494  165.1476 C.3     1  UNL1        0.0845
     26 C         139.3880  137.7174  164.8775 C.3     1  UNL1        0.0209
     27 C         139.9470  137.4730  163.5071 C.3     1  UNL1        0.0018
     28 C         139.6942  138.4607  162.4069 C.3     1  UNL1        0.0015
     29 C         138.8823  139.6928  162.6770 C.3     1  UNL1        0.0172
     30 C         138.3234  139.9371  164.0473 C.3     1  UNL1        0.0689
     31 N         137.5115  141.1692  164.3175 N.3     1  UNL1       -0.3209
     32 H         137.2142  141.1734  165.2932 H       1  UNL1        0.1189
     33 H         136.6908  141.1751  163.7119 H       1  UNL1        0.1189
@<TRIPOS>BOND
     1    21    22    1
     2    22    20    1
     3    20    14    1
     4    14    15   ar
     5    15    16   ar
     6    16    17   ar
     7    17    18   ar
     8    18    12    1
     9    12     1    1
    10     1     2   ar
    11     2     3   ar
    12     3    23    1
    13    25    23    1
    14    25    26    1
    15    26    27    1
    16    27    28    1
    17    28    29    1
    18    29    30    1
    19    30    31    1
    20     3     4   ar
    21     4     5   ar
    22     5     6   ar
    23     6     7    1
    24     7     8   am
    25     7     9    2
    26    18    19   ar
    27    19    14   ar
    28     6     1   ar
    29    30    25    1
    30    12    13    1
    31    23    24    1
    32    31    32    1
    33    31    33    1
    34     8    10    1
    35     8    11    1
@<TRIPOS>MOLECULE
*****
 33 35 0 0 0
SMALL
GASTEIGER

@<TRIPOS>ATOM
      1 C         141.3935  140.8166  167.7547 C.ar    1  UNL1        0.0764
      2 C         140.4537  140.2860  166.7129 C.ar    1  UNL1        0.0522
      3 C         139.1541  139.6600  167.1244 C.ar    1  UNL1        0.1515
      4 N         138.7943  139.5648  168.5774 N.ar    1  UNL1       -0.1329
      5 N         139.7341  140.0954  169.6191 N.ar    1  UNL1       -0.1409
      6 C         141.0337  140.7214  169.2078 C.ar    1  UNL1        0.1691
      7 C         141.9735  141.2520  170.2495 C.2     1  UNL1        0.2635
      8 N         142.4033  140.3754  171.3882 N.am    1  UNL1       -0.3240
      9 O         142.4834  142.6594  170.1524 O.2     1  UNL1       -0.2686
     10 H         142.0686  139.4518  171.4519 H       1  UNL1        0.1453
     11 H         143.0201  140.7237  172.0719 H       1  UNL1        0.1453
     12 N         142.6931  141.4426  167.3433 N.pl3   1  UNL1       -0.2965
     13 H         143.5266  141.1951  167.8051 H       1  UNL1        0.1537
     14 C         141.4694  144.0050  164.5708 C.ar    1  UNL1        0.0604
     15 C         142.7820  144.4515  163.9984 C.ar    1  UNL1        0.0148
     16 C         144.0650  143.8950  164.5409 C.ar    1  UNL1        0.0041
     17 C         144.0353  142.8921  165.6559 C.ar    1  UNL1        0.0344
     18 C         142.7227  142.4456  166.2283 C.ar    1  UNL1        0.1318
     19 N         141.4398  143.0020  165.6858 N.ar    1  UNL1       -0.2349
     20 C         140.1864  144.5615  164.0283 C.3     1  UNL1        0.0459
     21 C         137.7065  144.1494  164.6841 C.3     1  UNL1        0.0004
     22 C         139.0277  144.8086  164.9482 C.3     1  UNL1        0.0063
     23 N         138.2142  139.1293  166.0827 N.pl3   1  UNL1       -0.3170
     24 H         137.2617  139.0036  166.2973 H       1  UNL1        0.1482
     25 C         138.7258  138.7902  164.7139 C.3     1  UNL1        0.0845
     26 C         139.7059  137.6687  164.5361 C.3     1  UNL1        0.0209
     27 C         140.2175  137.3296  163.1674 C.3     1  UNL1        0.0018
     28 C         139.7489  138.1121  161.9765 C.3     1  UNL1        0.0015
     29 C         138.7688  139.2336  162.1543 C.3     1  UNL1        0.0172
     30 C         138.2573  139.5727  163.5230 C.3     1  UNL1        0.0689
     31 N         137.2772  140.6942  163.7009 N.3     1  UNL1       -0.3209
     32 H         137.0391  140.7843  164.6886 H       1  UNL1        0.1189
     33 H         136.4326  140.4960  163.1643 H       1  UNL1        0.1189
@<TRIPOS>BOND
     1    21    22    1
     2    22    20    1
     3    20    14    1
     4    14    15   ar
     5    15    16   ar
     6    16    17   ar
     7    17    18   ar
     8    18    12    1
     9    12     1    1
    10     1     2   ar
    11     2     3   ar
    12     3    23    1
    13    25    23    1
    14    25    26    1
    15    26    27    1
    16    27    28    1
    17    28    29    1
    18    29    30    1
    19    30    31    1
    20     3     4   ar
    21     4     5   ar
    22     5     6   ar
    23     6     7    1
    24     7     8   am
    25     7     9    2
    26    18    19   ar
    27    19    14   ar
    28     6     1   ar
    29    30    25    1
    30    12    13    1
    31    23    24    1
    32    31    32    1
    33    31    33    1
    34     8    10    1
    35     8    11    1
@<TRIPOS>MOLECULE
*****
 33 35 0 0 0
SMALL
GASTEIGER

@<TRIPOS>ATOM
      1 C         139.5666  143.7732  162.7774 C.ar    1  UNL1        0.0764
      2 C         138.8613  142.4905  163.1050 C.ar    1  UNL1        0.0522
      3 C         138.1731  141.7150  162.0209 C.ar    1  UNL1        0.1515
      4 N         138.1904  142.2221  160.6094 N.ar    1  UNL1       -0.1329
      5 N         138.8958  143.5047  160.2818 N.ar    1  UNL1       -0.1409
      6 C         139.5839  144.2803  161.3657 C.ar    1  UNL1        0.1691
      7 C         140.2892  145.5629  161.0382 C.2     1  UNL1        0.2635
      8 N         141.4784  145.5526  160.1239 N.am    1  UNL1       -0.3240
      9 O         139.8054  146.8559  161.6248 O.2     1  UNL1       -0.2686
     10 H         141.7959  144.7039  159.7389 H       1  UNL1        0.1453
     11 H         141.9413  146.3944  159.9089 H       1  UNL1        0.1453
     12 N         140.2547  144.5487  163.8613 N.pl3   1  UNL1       -0.2965
     13 H         139.8688  145.3960  164.1812 H       1  UNL1        0.1537
     14 C         142.7653  142.4463  166.1035 C.ar    1  UNL1        0.0604
     15 C         144.0830  143.0023  165.6511 C.ar    1  UNL1        0.0148
     16 C         144.1246  144.0737  164.6021 C.ar    1  UNL1        0.0041
     17 C         142.8485  144.5892  164.0055 C.ar    1  UNL1        0.0344
     18 C         141.5309  144.0332  164.4579 C.ar    1  UNL1        0.1318
     19 N         141.4893  142.9618  165.5069 N.ar    1  UNL1       -0.2349
     20 C         142.7238  141.3749  167.1524 C.3     1  UNL1        0.0459
     21 C         142.8476  138.9812  166.1500 C.3     1  UNL1        0.0004
     22 C         142.0736  140.0568  166.8528 C.3     1  UNL1        0.0063
     23 N         137.4678  140.4324  162.3485 N.pl3   1  UNL1       -0.3170
     24 H         136.6034  140.2241  161.9258 H       1  UNL1        0.1482
     25 C         138.0794  139.4671  163.3203 C.3     1  UNL1        0.0845
     26 C         138.0612  139.7690  164.7894 C.3     1  UNL1        0.0209
     27 C         138.6728  138.8037  165.7612 C.3     1  UNL1        0.0018
     28 C         139.3027  137.5366  165.2637 C.3     1  UNL1        0.0015
     29 C         139.3209  137.2346  163.7944 C.3     1  UNL1        0.0172
     30 C         138.7093  138.1999  162.8228 C.3     1  UNL1        0.0689
     31 N         138.7275  137.8980  161.3535 N.3     1  UNL1       -0.3209
     32 H         138.2721  138.6559  160.8450 H       1  UNL1        0.1189
     33 H         138.2299  137.0247  161.1797 H       1  UNL1        0.1189
@<TRIPOS>BOND
     1    21    22    1
     2    22    20    1
     3    20    14    1
     4    14    15   ar
     5    15    16   ar
     6    16    17   ar
     7    17    18   ar
     8    18    12    1
     9    12     1    1
    10     1     2   ar
    11     2     3   ar
    12     3    23    1
    13    25    23    1
    14    25    26    1
    15    26    27    1
    16    27    28    1
    17    28    29    1
    18    29    30    1
    19    30    31    1
    20     3     4   ar
    21     4     5   ar
    22     5     6   ar
    23     6     7    1
    24     7     8   am
    25     7     9    2
    26    18    19   ar
    27    19    14   ar
    28     6     1   ar
    29    30    25    1
    30    12    13    1
    31    23    24    1
    32    31    32    1
    33    31    33    1
    34     8    10    1
    35     8    11    1
@<TRIPOS>MOLECULE
*****
 33 35 0 0 0
SMALL
GASTEIGER

@<TRIPOS>ATOM
      1 C         140.8677  144.1542  161.0701 C.ar    1  UNL1        0.0764
      2 C         140.0807  143.3951  162.0970 C.ar    1  UNL1        0.0522
      3 C         138.7865  142.7394  161.7159 C.ar    1  UNL1        0.1515
      4 N         138.2794  142.8428  160.3080 N.ar    1  UNL1       -0.1329
      5 N         139.0664  143.6019  159.2812 N.ar    1  UNL1       -0.1409
      6 C         140.3606  144.2575  159.6622 C.ar    1  UNL1        0.1691
      7 C         141.1476  145.0166  158.6354 C.2     1  UNL1        0.2635
      8 N         140.4555  145.9926  157.7308 N.am    1  UNL1       -0.3240
      9 O         142.6268  144.7996  158.5132 O.2     1  UNL1       -0.2686
     10 H         139.4847  146.1350  157.8110 H       1  UNL1        0.1453
     11 H         140.9721  146.4908  157.0568 H       1  UNL1        0.1453
     12 N         142.1619  144.8098  161.4512 N.pl3   1  UNL1       -0.2965
     13 H         142.4439  145.6398  161.0030 H       1  UNL1        0.1537
     14 C         144.5037  142.2398  163.3645 C.ar    1  UNL1        0.0604
     15 C         144.7555  142.9831  164.6427 C.ar    1  UNL1        0.0148
     16 C         144.1428  144.3354  164.8572 C.ar    1  UNL1        0.0041
     17 C         143.2782  144.9443  163.7933 C.ar    1  UNL1        0.0344
     18 C         143.0265  144.2009  162.5151 C.ar    1  UNL1        0.1318
     19 N         143.6392  142.8487  162.3006 N.ar    1  UNL1       -0.2349
     20 C         145.1165  140.8875  163.1500 C.3     1  UNL1        0.0459
     21 C         143.7595  139.1206  164.4866 C.3     1  UNL1        0.0004
     22 C         145.0445  139.8514  164.2322 C.3     1  UNL1        0.0063
     23 N         137.9994  141.9804  162.7427 N.pl3   1  UNL1       -0.3170
     24 H         137.2438  142.4129  163.2024 H       1  UNL1        0.1482
     25 C         138.3636  140.5623  163.0692 C.3     1  UNL1        0.0845
     26 C         139.1457  140.2560  164.3119 C.3     1  UNL1        0.0209
     27 C         139.5099  138.8379  164.6385 C.3     1  UNL1        0.0018
     28 C         139.0920  137.7263  163.7222 C.3     1  UNL1        0.0015
     29 C         138.3098  138.0327  162.4794 C.3     1  UNL1        0.0172
     30 C         137.9457  139.4507  162.1530 C.3     1  UNL1        0.0689
     31 N         137.1635  139.7571  160.9102 N.3     1  UNL1       -0.3209
     32 H         137.0061  140.7629  160.8468 H       1  UNL1        0.1189
     33 H         136.2658  139.2741  160.9457 H       1  UNL1        0.1189
@<TRIPOS>BOND
     1    21    22    1
     2    22    20    1
     3    20    14    1
     4    14    15   ar
     5    15    16   ar
     6    16    17   ar
     7    17    18   ar
     8    18    12    1
     9    12     1    1
    10     1     2   ar
    11     2     3   ar
    12     3    23    1
    13    25    23    1
    14    25    26    1
    15    26    27    1
    16    27    28    1
    17    28    29    1
    18    29    30    1
    19    30    31    1
    20     3     4   ar
    21     4     5   ar
    22     5     6   ar
    23     6     7    1
    24     7     8   am
    25     7     9    2
    26    18    19   ar
    27    19    14   ar
    28     6     1   ar
    29    30    25    1
    30    12    13    1
    31    23    24    1
    32    31    32    1
    33    31    33    1
    34     8    10    1
    35     8    11    1
@<TRIPOS>MOLECULE
*****
 33 35 0 0 0
SMALL
GASTEIGER

@<TRIPOS>ATOM
      1 C         141.5205  140.4928  167.0666 C.ar    1  UNL1        0.0764
      2 C         142.4757  141.2754  166.2149 C.ar    1  UNL1        0.0522
      3 C         143.3562  142.3172  166.8389 C.ar    1  UNL1        0.1515
      4 N         143.2816  142.5765  168.3144 N.ar    1  UNL1       -0.1329
      5 N         142.3265  141.7939  169.1661 N.ar    1  UNL1       -0.1409
      6 C         141.4460  140.7521  168.5422 C.ar    1  UNL1        0.1691
      7 C         140.4908  139.9695  169.3938 C.2     1  UNL1        0.2635
      8 N         140.9734  139.3139  170.6536 N.am    1  UNL1       -0.3240
      9 O         139.0530  139.8426  168.9856 O.2     1  UNL1       -0.2686
     10 H         141.9171  139.3972  170.9216 H       1  UNL1        0.1453
     11 H         140.3465  138.8003  171.2126 H       1  UNL1        0.1453
     12 N         140.6400  139.4510  166.4427 N.pl3   1  UNL1       -0.2965
     13 H         140.6997  138.5142  166.7393 H       1  UNL1        0.1537
     14 C         138.1037  141.5999  164.2748 C.ar    1  UNL1        0.0604
     15 C         137.7253  140.6078  163.2153 C.ar    1  UNL1        0.0148
     16 C         138.3184  139.2302  163.2316 C.ar    1  UNL1        0.0041
     17 C         139.2900  138.8446  164.3074 C.ar    1  UNL1        0.0344
     18 C         139.6684  139.8366  165.3669 C.ar    1  UNL1        0.1318
     19 N         139.0753  141.2143  165.3506 N.ar    1  UNL1       -0.2349
     20 C         137.5106  142.9775  164.2585 C.3     1  UNL1        0.0459
     21 C         138.6575  144.9358  165.5233 C.3     1  UNL1        0.0004
     22 C         138.4072  144.1801  164.2520 C.3     1  UNL1        0.0063
     23 N         144.3114  143.0998  165.9873 N.pl3   1  UNL1       -0.3170
     24 H         145.1382  143.4619  166.3803 H       1  UNL1        0.1482
     25 C         144.0067  143.3307  164.5367 C.3     1  UNL1        0.0845
     26 C         142.8836  144.2434  164.1423 C.3     1  UNL1        0.0209
     27 C         142.5790  144.4743  162.6918 C.3     1  UNL1        0.0018
     28 C         143.3974  143.7924  161.6358 C.3     1  UNL1        0.0015
     29 C         144.5205  142.8796  162.0303 C.3     1  UNL1        0.0172
     30 C         144.8251  142.6488  163.4807 C.3     1  UNL1        0.0689
     31 N         145.9482  141.7360  163.8752 N.3     1  UNL1       -0.3209
     32 H         146.0126  141.6961  164.8924 H       1  UNL1        0.1189
     33 H         146.8248  142.0905  163.4927 H       1  UNL1        0.1189
@<TRIPOS>BOND
     1    21    22    1
     2    22    20    1
     3    20    14    1
     4    14    15   ar
     5    15    16   ar
     6    16    17   ar
     7    17    18   ar
     8    18    12    1
     9    12     1    1
    10     1     2   ar
    11     2     3   ar
    12     3    23    1
    13    25    23    1
    14    25    26    1
    15    26    27    1
    16    27    28    1
    17    28    29    1
    18    29    30    1
    19    30    31    1
    20     3     4   ar
    21     4     5   ar
    22     5     6   ar
    23     6     7    1
    24     7     8   am
    25     7     9    2
    26    18    19   ar
    27    19    14   ar
    28     6     1   ar
    29    30    25    1
    30    12    13    1
    31    23    24    1
    32    31    32    1
    33    31    33    1
    34     8    10    1
    35     8    11    1
@<TRIPOS>MOLECULE
*****
 33 35 0 0 0
SMALL
GASTEIGER

@<TRIPOS>ATOM
      1 C         141.6989  139.7212  165.0909 C.ar    1  UNL1        0.0764
      2 C         141.5739  140.0175  166.5560 C.ar    1  UNL1        0.0522
      3 C         142.5699  139.4501  167.5236 C.ar    1  UNL1        0.1515
      4 N         143.6909  138.5865  167.0260 N.ar    1  UNL1       -0.1329
      5 N         143.8159  138.2903  165.5608 N.ar    1  UNL1       -0.1409
      6 C         142.8199  138.8576  164.5933 C.ar    1  UNL1        0.1691
      7 C         142.9449  138.5614  163.1282 C.2     1  UNL1        0.2635
      8 N         144.2587  138.7604  162.4322 N.am    1  UNL1       -0.3240
      9 O         141.7561  138.0661  162.3590 O.2     1  UNL1       -0.2686
     10 H         145.0389  139.0855  162.9370 H       1  UNL1        0.1453
     11 H         144.3407  138.5660  161.4706 H       1  UNL1        0.1453
     12 N         140.7029  140.2886  164.1234 N.pl3   1  UNL1       -0.2965
     13 H         140.3151  139.7153  163.4233 H       1  UNL1        0.1537
     14 C         140.9037  144.2519  164.0797 C.ar    1  UNL1        0.0604
     15 C         139.4879  144.6112  164.4207 C.ar    1  UNL1        0.0148
     16 C         138.4771  143.5297  164.6625 C.ar    1  UNL1        0.0041
     17 C         138.8821  142.0888  164.5634 C.ar    1  UNL1        0.0344
     18 C         140.2979  141.7295  164.2225 C.ar    1  UNL1        0.1318
     19 N         141.3087  142.8111  163.9807 N.ar    1  UNL1       -0.2349
     20 C         141.9146  145.3335  163.8379 C.3     1  UNL1        0.0459
     21 C         144.1140  144.4739  162.7547 C.3     1  UNL1        0.0004
     22 C         143.3794  145.0273  163.9396 C.3     1  UNL1        0.0063
     23 N         142.4449  139.7463  168.9887 N.pl3   1  UNL1       -0.3170
     24 H         142.9052  139.1771  169.6470 H       1  UNL1        0.1482
     25 C         141.6185  140.9098  169.4508 C.3     1  UNL1        0.0845
     26 C         140.2086  140.6914  169.9138 C.3     1  UNL1        0.0209
     27 C         139.3822  141.8549  170.3759 C.3     1  UNL1        0.0018
     28 C         139.9657  143.2367  170.3750 C.3     1  UNL1        0.0015
     29 C         141.3757  143.4550  169.9120 C.3     1  UNL1        0.0172
     30 C         142.2021  142.2916  169.4499 C.3     1  UNL1        0.0689
     31 N         143.6121  142.5100  168.9869 N.3     1  UNL1       -0.3209
     32 H         144.0215  141.6173  168.7112 H       1  UNL1        0.1189
     33 H         144.1601  142.9156  169.7455 H       1  UNL1        0.1189
@<TRIPOS>BOND
     1    21    22    1
     2    22    20    1
     3    20    14    1
     4    14    15   ar
     5    15    16   ar
     6    16    17   ar
     7    17    18   ar
     8    18    12    1
     9    12     1    1
    10     1     2   ar
    11     2     3   ar
    12     3    23    1
    13    25    23    1
    14    25    26    1
    15    26    27    1
    16    27    28    1
    17    28    29    1
    18    29    30    1
    19    30    31    1
    20     3     4   ar
    21     4     5   ar
    22     5     6   ar
    23     6     7    1
    24     7     8   am
    25     7     9    2
    26    18    19   ar
    27    19    14   ar
    28     6     1   ar
    29    30    25    1
    30    12    13    1
    31    23    24    1
    32    31    32    1
    33    31    33    1
    34     8    10    1
    35     8    11    1
@<TRIPOS>MOLECULE
*****
 33 35 0 0 0
SMALL
GASTEIGER

@<TRIPOS>ATOM
      1 C         141.2064  140.4914  167.7127 C.ar    1  UNL1        0.0764
      2 C         141.9965  139.9547  166.5561 C.ar    1  UNL1        0.0522
      3 C         143.0640  138.9271  166.7896 C.ar    1  UNL1        0.1515
      4 N         143.3413  138.4362  168.1795 N.ar    1  UNL1       -0.1329
      5 N         142.5512  138.9728  169.3361 N.ar    1  UNL1       -0.1409
      6 C         141.4838  140.0004  169.1027 C.ar    1  UNL1        0.1691
      7 C         140.6937  140.5371  170.2593 C.2     1  UNL1        0.2635
      8 N         139.9605  139.5956  171.1681 N.am    1  UNL1       -0.3240
      9 O         140.6367  142.0155  170.5071 O.2     1  UNL1       -0.2686
     10 H         139.9979  138.6253  171.0054 H       1  UNL1        0.1453
     11 H         139.4420  139.9478  171.9272 H       1  UNL1        0.1453
     12 N         140.1389  141.5190  167.4793 N.pl3   1  UNL1       -0.2965
     13 H         139.5660  141.8117  168.2246 H       1  UNL1        0.1537
     14 C         140.5724  143.8571  164.3020 C.ar    1  UNL1        0.0604
     15 C         139.5550  143.2642  163.3728 C.ar    1  UNL1        0.0148
     16 C         138.7322  142.0896  163.8125 C.ar    1  UNL1        0.0041
     17 C         138.9269  141.5078  165.1813 C.ar    1  UNL1        0.0344
     18 C         139.9442  142.1007  166.1105 C.ar    1  UNL1        0.1318
     19 N         140.7670  143.2754  165.6708 N.ar    1  UNL1       -0.2349
     20 C         141.3952  145.0317  163.8623 C.3     1  UNL1        0.0459
     21 C         143.7008  144.5000  162.7894 C.3     1  UNL1        0.0004
     22 C         142.8911  144.9776  163.9583 C.3     1  UNL1        0.0063
     23 N         143.8541  138.3904  165.6330 N.pl3   1  UNL1       -0.3170
     24 H         144.2464  137.4887  165.6809 H       1  UNL1        0.1482
     25 C         144.0465  139.2276  164.4032 C.3     1  UNL1        0.0845
     26 C         145.0846  140.3102  164.3878 C.3     1  UNL1        0.0209
     27 C         145.2770  141.1474  163.1581 C.3     1  UNL1        0.0018
     28 C         144.4313  140.9019  161.9438 C.3     1  UNL1        0.0015
     29 C         143.3932  139.8193  161.9593 C.3     1  UNL1        0.0172
     30 C         143.2008  138.9821  163.1890 C.3     1  UNL1        0.0689
     31 N         142.1626  137.8995  163.2044 N.3     1  UNL1       -0.3209
     32 H         142.1692  137.4351  164.1125 H       1  UNL1        0.1189
     33 H         142.3699  137.2192  162.4732 H       1  UNL1        0.1189
@<TRIPOS>BOND
     1    21    22    1
     2    22    20    1
     3    20    14    1
     4    14    15   ar
     5    15    16   ar
     6    16    17   ar
     7    17    18   ar
     8    18    12    1
     9    12     1    1
    10     1     2   ar
    11     2     3   ar
    12     3    23    1
    13    25    23    1
    14    25    26    1
    15    26    27    1
    16    27    28    1
    17    28    29    1
    18    29    30    1
    19    30    31    1
    20     3     4   ar
    21     4     5   ar
    22     5     6   ar
    23     6     7    1
    24     7     8   am
    25     7     9    2
    26    18    19   ar
    27    19    14   ar
    28     6     1   ar
    29    30    25    1
    30    12    13    1
    31    23    24    1
    32    31    32    1
    33    31    33    1
    34     8    10    1
    35     8    11    1
