@<TRIPOS>MOLECULE
*****
 36 41 0 0 0
SMALL
GASTEIGER

@<TRIPOS>ATOM
      1 C         138.5350  141.9025  164.4417 C.3     1  UNL1        0.0955
      2 C         138.0161  141.9217  163.0344 C.3     1  UNL1        0.0287
      3 C         138.0160  143.2018  162.2525 C.3     1  UNL1        0.0193
      4 C         138.5346  144.4627  162.8780 C.3     1  UNL1        0.0700
      5 C         139.0534  144.4435  164.2852 C.3     1  UNL1        0.0193
      6 C         139.0537  143.1634  165.0672 C.3     1  UNL1        0.0287
      7 C         138.5549  143.7854  163.3459 C.3     1  UNL1        0.1562
      8 O         138.5550  142.6279  164.0528 O.3     1  UNL1       -0.3571
      9 N         138.5344  145.7429  162.0961 N.3     1  UNL1       -0.2939
     10 H         138.3026  146.4886  162.7523 H       1  UNL1        0.1235
     11 C         139.7715  146.1765  161.3672 C.3     1  UNL1        0.0954
     12 C         140.5348  145.1909  160.5328 C.2     1  UNL1       -0.0075
     13 C         141.7512  144.5162  161.0942 C.2     1  UNL1        0.0159
     14 C         142.5144  143.5306  160.2598 C.ar    1  UNL1        0.0811
     15 C         142.8119  142.1629  160.7991 C.ar    1  UNL1        0.0191
     16 C         143.5751  141.1773  159.9647 C.ar    1  UNL1        0.0031
     17 C         144.0408  141.5596  158.5909 C.ar    1  UNL1        0.0207
     18 C         143.7433  142.9273  158.0517 C.ar    1  UNL1        0.0988
     19 N         142.9801  143.9128  158.8861 N.ar    1  UNL1       -0.2438
     20 C         138.5352  140.6223  165.2236 C.3     1  UNL1        0.0604
     21 O         138.9252  140.8650  170.3296 O.2     1  UNL1       -0.2670
     22 C         140.1362  140.2646  169.6792 C.ar    1  UNL1        0.2611
     23 C         141.2923  139.8114  170.5205 C.ar    1  UNL1        0.0623
     24 C         142.5033  139.2110  169.8701 C.ar    1  UNL1        0.0254
     25 C         142.5581  139.0638  168.3784 C.ar    1  UNL1        0.0972
     26 N         143.6239  138.5079  167.4698 N.ar    1  UNL1       -0.2400
     27 C         143.5356  138.4251  165.9747 C.ar    1  UNL1        0.1282
     28 C         142.3094  138.9210  165.2673 C.ar    1  UNL1        0.1588
     29 F         142.2211  138.8383  163.7722 F       1  UNL1       -0.2027
     30 C         141.1715  139.4997  166.0550 C.ar    1  UNL1        0.0500
     31 C         141.4020  139.5171  167.5371 C.ar    1  UNL1        0.0806
     32 N         140.1910  140.1175  168.1875 N.ar    1  UNL1       -0.2915
     33 C         139.2121  140.4711  167.1074 C.3     1  UNL1        0.1402
     34 C         139.8180  140.0893  165.7894 C.3     1  UNL1        0.1335
     35 O         140.1558  139.8189  164.3532 O.3     1  UNL1       -0.3806
     36 H         139.4206  140.1047  163.7887 H       1  UNL1        0.2108
@<TRIPOS>BOND
     1    21    22    2
     2    22    23   ar
     3    23    24   ar
     4    24    25   ar
     5    25    26   ar
     6    26    27   ar
     7    27    28   ar
     8    28    29    1
     9    28    30   ar
    10    30    31   ar
    11    31    32   ar
    12    32    33    1
    13    33    34    1
    14    34    35    1
    15    34    20    1
    16    20     1    1
    17     1     2    1
    18     2     3    1
    19     3     4    1
    20     4     9    1
    21     9    11    1
    22    11    12    1
    23    12    13    2
    24    13    14    1
    25    14    15   ar
    26    15    16   ar
    27    16    17   ar
    28    17    18   ar
    29    18    19   ar
    30     4     5    1
    31     5     6    1
    32     4     7    1
    33     7     8    1
    34    32    22   ar
    35     6     1    1
    36    31    25   ar
    37     8     1    1
    38    34    30    1
    39    19    14   ar
    40    35    36    1
    41     9    10    1
@<TRIPOS>MOLECULE
*****
 36 41 0 0 0
SMALL
GASTEIGER

@<TRIPOS>ATOM
      1 C         143.5458  140.6432  159.6741 C.3     1  UNL1        0.0955
      2 C         142.7182  140.7405  158.4268 C.3     1  UNL1        0.0287
      3 C         142.4745  142.0770  157.7908 C.3     1  UNL1        0.0193
      4 C         143.0584  143.3161  158.4020 C.3     1  UNL1        0.0700
      5 C         143.8860  143.2188  159.6493 C.3     1  UNL1        0.0193
      6 C         144.1297  141.8823  160.2854 C.3     1  UNL1        0.0287
      7 C         143.2194  142.6060  158.7867 C.3     1  UNL1        0.1562
      8 O         143.4397  141.3976  159.3617 O.3     1  UNL1       -0.3571
      9 N         142.8147  144.6526  157.7660 N.3     1  UNL1       -0.2939
     10 H         142.6502  144.4810  156.7741 H       1  UNL1        0.1235
     11 C         141.6888  145.5184  158.2483 C.3     1  UNL1        0.0954
     12 C         140.6979  144.9787  159.2367 C.2     1  UNL1       -0.0075
     13 C         140.8643  145.2670  160.6993 C.2     1  UNL1        0.0159
     14 C         139.8734  144.7273  161.6876 C.ar    1  UNL1        0.0811
     15 C         139.9065  145.1925  163.1132 C.ar    1  UNL1        0.0191
     16 C         138.9156  144.6528  164.1015 C.ar    1  UNL1        0.0031
     17 C         137.8915  143.6478  163.6640 C.ar    1  UNL1        0.0207
     18 C         137.8584  143.1826  162.2384 C.ar    1  UNL1        0.0988
     19 N         138.8493  143.7223  161.2501 N.ar    1  UNL1       -0.2438
     20 C         143.7895  139.3067  160.3101 C.3     1  UNL1        0.0604
     21 O         138.9069  137.8670  160.9184 O.2     1  UNL1       -0.2670
     22 C         139.6527  137.9659  162.2161 C.ar    1  UNL1        0.2611
     23 C         138.9555  137.6554  163.5073 C.ar    1  UNL1        0.0623
     24 C         139.7013  137.7543  164.8050 C.ar    1  UNL1        0.0254
     25 C         141.1443  138.1636  164.8115 C.ar    1  UNL1        0.0972
     26 N         142.1246  138.3436  165.9415 N.ar    1  UNL1       -0.2400
     27 C         143.5568  138.7635  165.7916 C.ar    1  UNL1        0.1282
     28 C         144.1181  139.0415  164.4287 C.ar    1  UNL1        0.1588
     29 F         145.5503  139.4614  164.2788 F       1  UNL1       -0.2027
     30 C         143.2472  138.8998  163.2156 C.ar    1  UNL1        0.0500
     31 C         141.8415  138.4740  163.5202 C.ar    1  UNL1        0.0806
     32 N         141.0957  138.3752  162.2225 N.ar    1  UNL1       -0.2915
     33 C         142.0405  138.7398  161.1160 C.3     1  UNL1        0.1402
     34 C         143.3703  139.0641  161.7297 C.3     1  UNL1        0.1335
     35 O         144.7876  139.4390  162.0468 O.3     1  UNL1       -0.3806
     36 H         145.2593  139.6446  161.2245 H       1  UNL1        0.2108
@<TRIPOS>BOND
     1    21    22    2
     2    22    23   ar
     3    23    24   ar
     4    24    25   ar
     5    25    26   ar
     6    26    27   ar
     7    27    28   ar
     8    28    29    1
     9    28    30   ar
    10    30    31   ar
    11    31    32   ar
    12    32    33    1
    13    33    34    1
    14    34    35    1
    15    34    20    1
    16    20     1    1
    17     1     2    1
    18     2     3    1
    19     3     4    1
    20     4     9    1
    21     9    11    1
    22    11    12    1
    23    12    13    2
    24    13    14    1
    25    14    15   ar
    26    15    16   ar
    27    16    17   ar
    28    17    18   ar
    29    18    19   ar
    30     4     5    1
    31     5     6    1
    32     4     7    1
    33     7     8    1
    34    32    22   ar
    35     6     1    1
    36    31    25   ar
    37     8     1    1
    38    34    30    1
    39    19    14   ar
    40    35    36    1
    41     9    10    1
@<TRIPOS>MOLECULE
*****
 36 41 0 0 0
SMALL
GASTEIGER

@<TRIPOS>ATOM
      1 C         138.3899  141.6730  164.8751 C.3     1  UNL1        0.0955
      2 C         139.4126  142.5507  165.5337 C.3     1  UNL1        0.0287
      3 C         140.3111  141.9888  166.5954 C.3     1  UNL1        0.0193
      4 C         140.1868  140.5493  166.9984 C.3     1  UNL1        0.0700
      5 C         139.1641  139.6717  166.3397 C.3     1  UNL1        0.0193
      6 C         138.2656  140.2335  165.2780 C.3     1  UNL1        0.0287
      7 C         139.6722  140.8122  166.4117 C.3     1  UNL1        0.1562
      8 O         138.8599  141.3202  165.4518 O.3     1  UNL1       -0.3571
      9 N         141.0853  139.9874  168.0600 N.3     1  UNL1       -0.2939
     10 H         140.5942  139.1939  168.4717 H       1  UNL1        0.1235
     11 C         142.4604  139.5072  167.7017 C.3     1  UNL1        0.0954
     12 C         142.9746  139.6805  166.3032 C.2     1  UNL1       -0.0075
     13 C         142.5562  138.7239  165.2262 C.2     1  UNL1        0.0159
     14 C         143.0705  138.8973  163.8279 C.ar    1  UNL1        0.0811
     15 C         143.9610  140.0575  163.4947 C.ar    1  UNL1        0.0191
     16 C         144.4752  140.2309  162.0963 C.ar    1  UNL1        0.0031
     17 C         144.0990  139.2439  161.0311 C.ar    1  UNL1        0.0207
     18 C         143.2086  138.0838  161.3644 C.ar    1  UNL1        0.0988
     19 N         142.6943  137.9104  162.7627 N.ar    1  UNL1       -0.2438
     20 C         137.4914  142.2349  163.8134 C.3     1  UNL1        0.0604
     21 O         140.3245  146.1079  162.0091 O.2     1  UNL1       -0.2670
     22 C         140.0358  145.0630  160.9724 C.ar    1  UNL1        0.2611
     23 C         140.5651  145.2235  159.5782 C.ar    1  UNL1        0.0623
     24 C         140.2764  144.1786  158.5414 C.ar    1  UNL1        0.0254
     25 C         139.4584  142.9732  158.8990 C.ar    1  UNL1        0.0972
     26 N         139.0192  141.7874  158.0796 N.ar    1  UNL1       -0.2400
     27 C         138.1912  140.6420  158.5819 C.ar    1  UNL1        0.1282
     28 C         137.7315  140.6183  160.0095 C.ar    1  UNL1        0.1588
     29 F         136.9035  139.4729  160.5118 F       1  UNL1       -0.2027
     30 C         138.1000  141.7399  160.9348 C.ar    1  UNL1        0.0500
     31 C         138.9291  142.8128  160.2932 C.ar    1  UNL1        0.0806
     32 N         139.2178  143.8577  161.3300 N.ar    1  UNL1       -0.2915
     33 C         138.5671  143.4306  162.6123 C.3     1  UNL1        0.1402
     34 C         137.8763  142.1217  162.3681 C.3     1  UNL1        0.1335
     35 O         137.1050  140.8365  162.4260 O.3     1  UNL1       -0.3806
     36 H         136.7522  140.7112  163.3208 H       1  UNL1        0.2108
@<TRIPOS>BOND
     1    21    22    2
     2    22    23   ar
     3    23    24   ar
     4    24    25   ar
     5    25    26   ar
     6    26    27   ar
     7    27    28   ar
     8    28    29    1
     9    28    30   ar
    10    30    31   ar
    11    31    32   ar
    12    32    33    1
    13    33    34    1
    14    34    35    1
    15    34    20    1
    16    20     1    1
    17     1     2    1
    18     2     3    1
    19     3     4    1
    20     4     9    1
    21     9    11    1
    22    11    12    1
    23    12    13    2
    24    13    14    1
    25    14    15   ar
    26    15    16   ar
    27    16    17   ar
    28    17    18   ar
    29    18    19   ar
    30     4     5    1
    31     5     6    1
    32     4     7    1
    33     7     8    1
    34    32    22   ar
    35     6     1    1
    36    31    25   ar
    37     8     1    1
    38    34    30    1
    39    19    14   ar
    40    35    36    1
    41     9    10    1
@<TRIPOS>MOLECULE
*****
 36 41 0 0 0
SMALL
GASTEIGER

@<TRIPOS>ATOM
      1 C         138.4689  139.0471  165.3650 C.3     1  UNL1        0.0955
      2 C         139.2231  137.7758  165.1094 C.3     1  UNL1        0.0287
      3 C         139.5072  137.3423  163.7018 C.3     1  UNL1        0.0193
      4 C         139.0372  138.1800  162.5497 C.3     1  UNL1        0.0700
      5 C         138.2830  139.4512  162.8053 C.3     1  UNL1        0.0193
      6 C         137.9989  139.8848  164.2129 C.3     1  UNL1        0.0287
      7 C         138.8577  138.4585  163.3036 C.3     1  UNL1        0.1562
      8 O         138.6008  138.8505  164.5763 O.3     1  UNL1       -0.3571
      9 N         139.3213  137.7465  161.1421 N.3     1  UNL1       -0.2939
     10 H         138.4319  137.7655  160.6430 H       1  UNL1        0.1235
     11 C         140.3036  138.5115  160.3057 C.3     1  UNL1        0.0954
     12 C         141.3409  139.3713  160.9652 C.2     1  UNL1       -0.0075
     13 C         142.5151  138.7377  161.6506 C.2     1  UNL1        0.0159
     14 C         143.5522  139.5976  162.3101 C.ar    1  UNL1        0.0811
     15 C         143.9916  140.8754  161.6589 C.ar    1  UNL1        0.0191
     16 C         145.0287  141.7353  162.3184 C.ar    1  UNL1        0.0031
     17 C         145.6265  141.3172  163.6292 C.ar    1  UNL1        0.0207
     18 C         145.1871  140.0394  164.2803 C.ar    1  UNL1        0.0988
     19 N         144.1499  139.1795  163.6208 N.ar    1  UNL1       -0.2438
     20 C         138.1848  139.4806  166.7726 C.3     1  UNL1        0.0604
     21 O         141.8785  142.0257  164.2902 O.2     1  UNL1       -0.2670
     22 C         142.1234  141.9344  165.7673 C.ar    1  UNL1        0.2611
     23 C         143.3515  142.5555  166.3638 C.ar    1  UNL1        0.0623
     24 C         143.5964  142.4642  167.8408 C.ar    1  UNL1        0.0254
     25 C         142.6130  141.7519  168.7214 C.ar    1  UNL1        0.0972
     26 N         142.5999  141.5088  170.2084 N.ar    1  UNL1       -0.2400
     27 C         141.5331  140.7683  170.9591 C.ar    1  UNL1        0.1282
     28 C         140.3562  140.1991  170.2236 C.ar    1  UNL1        0.1588
     29 F         139.2893  139.4587  170.9743 F       1  UNL1       -0.2027
     30 C         140.2462  140.3704  168.7375 C.ar    1  UNL1        0.0500
     31 C         141.3849  141.1308  168.1250 C.ar    1  UNL1        0.0806
     32 N         141.1400  141.2220  166.6479 N.ar    1  UNL1       -0.2915
     33 C         139.8500  140.5180  166.3476 C.3     1  UNL1        0.1402
     34 C         139.2975  139.9917  167.6390 C.3     1  UNL1        0.1335
     35 O         138.5125  139.3585  168.7493 O.3     1  UNL1       -0.3806
     36 H         137.7114  138.9493  168.3863 H       1  UNL1        0.2108
@<TRIPOS>BOND
     1    21    22    2
     2    22    23   ar
     3    23    24   ar
     4    24    25   ar
     5    25    26   ar
     6    26    27   ar
     7    27    28   ar
     8    28    29    1
     9    28    30   ar
    10    30    31   ar
    11    31    32   ar
    12    32    33    1
    13    33    34    1
    14    34    35    1
    15    34    20    1
    16    20     1    1
    17     1     2    1
    18     2     3    1
    19     3     4    1
    20     4     9    1
    21     9    11    1
    22    11    12    1
    23    12    13    2
    24    13    14    1
    25    14    15   ar
    26    15    16   ar
    27    16    17   ar
    28    17    18   ar
    29    18    19   ar
    30     4     5    1
    31     5     6    1
    32     4     7    1
    33     7     8    1
    34    32    22   ar
    35     6     1    1
    36    31    25   ar
    37     8     1    1
    38    34    30    1
    39    19    14   ar
    40    35    36    1
    41     9    10    1
@<TRIPOS>MOLECULE
*****
 36 41 0 0 0
SMALL
GASTEIGER

@<TRIPOS>ATOM
      1 C         142.3894  142.0519  166.6128 C.3     1  UNL1        0.0955
      2 C         141.2726  142.7123  167.3657 C.3     1  UNL1        0.0287
      3 C         140.2168  141.8767  168.0268 C.3     1  UNL1        0.0193
      4 C         140.2777  140.3808  167.9350 C.3     1  UNL1        0.0700
      5 C         141.3944  139.7205  167.1821 C.3     1  UNL1        0.0193
      6 C         142.4503  140.5560  166.5210 C.3     1  UNL1        0.0287
      7 C         140.8791  140.7968  167.5563 C.3     1  UNL1        0.1562
      8 O         141.8338  141.5523  166.9586 O.3     1  UNL1       -0.3571
      9 N         139.2218  139.5452  168.5960 N.3     1  UNL1       -0.2939
     10 H         138.8869  140.0759  169.4001 H       1  UNL1        0.1235
     11 C         138.0091  139.1195  167.8226 C.3     1  UNL1        0.0954
     12 C         138.1285  138.7839  166.3655 C.2     1  UNL1       -0.0075
     13 C         138.1144  139.8786  165.3401 C.2     1  UNL1        0.0159
     14 C         138.2338  139.5429  163.8830 C.ar    1  UNL1        0.0811
     15 C         138.9473  138.2942  163.4570 C.ar    1  UNL1        0.0191
     16 C         139.0667  137.9585  161.9999 C.ar    1  UNL1        0.0031
     17 C         138.4725  138.8717  160.9689 C.ar    1  UNL1        0.0207
     18 C         137.7590  140.1204  161.3949 C.ar    1  UNL1        0.0988
     19 N         137.6396  140.4561  162.8520 N.ar    1  UNL1       -0.2438
     20 C         143.4453  142.8875  165.9517 C.3     1  UNL1        0.0604
     21 O         139.4269  145.1996  163.7632 O.2     1  UNL1       -0.2670
     22 C         140.4488  144.7377  162.7671 C.ar    1  UNL1        0.2611
     23 C         140.2285  144.9737  161.3023 C.ar    1  UNL1        0.0623
     24 C         141.2505  144.5118  160.3061 C.ar    1  UNL1        0.0254
     25 C         142.4927  143.8139  160.7748 C.ar    1  UNL1        0.0972
     26 N         143.6670  143.2518  160.0163 N.ar    1  UNL1       -0.2400
     27 C         144.8541  142.5714  160.6309 C.ar    1  UNL1        0.1282
     28 C         144.9366  142.4067  162.1196 C.ar    1  UNL1        0.1588
     29 F         146.1237  141.7262  162.7342 F       1  UNL1       -0.2027
     30 C         143.8319  142.9224  162.9935 C.ar    1  UNL1        0.0500
     31 C         142.7130  143.5779  162.2396 C.ar    1  UNL1        0.0806
     32 N         141.6911  144.0398  163.2358 N.ar    1  UNL1       -0.2915
     33 C         142.1784  143.6697  164.6053 C.3     1  UNL1        0.1402
     34 C         143.5015  142.9791  164.4556 C.3     1  UNL1        0.1335
     35 O         144.8129  142.2694  164.6186 O.3     1  UNL1       -0.3806
     36 H         144.9770  142.1057  165.5605 H       1  UNL1        0.2108
@<TRIPOS>BOND
     1    21    22    2
     2    22    23   ar
     3    23    24   ar
     4    24    25   ar
     5    25    26   ar
     6    26    27   ar
     7    27    28   ar
     8    28    29    1
     9    28    30   ar
    10    30    31   ar
    11    31    32   ar
    12    32    33    1
    13    33    34    1
    14    34    35    1
    15    34    20    1
    16    20     1    1
    17     1     2    1
    18     2     3    1
    19     3     4    1
    20     4     9    1
    21     9    11    1
    22    11    12    1
    23    12    13    2
    24    13    14    1
    25    14    15   ar
    26    15    16   ar
    27    16    17   ar
    28    17    18   ar
    29    18    19   ar
    30     4     5    1
    31     5     6    1
    32     4     7    1
    33     7     8    1
    34    32    22   ar
    35     6     1    1
    36    31    25   ar
    37     8     1    1
    38    34    30    1
    39    19    14   ar
    40    35    36    1
    41     9    10    1
@<TRIPOS>MOLECULE
*****
 36 41 0 0 0
SMALL
GASTEIGER

@<TRIPOS>ATOM
      1 C         139.2296  138.3894  162.2768 C.3     1  UNL1        0.0955
      2 C         140.0807  138.2708  161.0472 C.3     1  UNL1        0.0287
      3 C         139.6250  138.8864  159.7575 C.3     1  UNL1        0.0193
      4 C         138.3183  139.6204  159.6972 C.3     1  UNL1        0.0700
      5 C         137.4673  139.7389  160.9267 C.3     1  UNL1        0.0193
      6 C         137.9229  139.1234  162.2165 C.3     1  UNL1        0.0287
      7 C         138.5260  139.2997  160.4266 C.3     1  UNL1        0.1562
      8 O         138.9380  138.7432  161.5928 O.3     1  UNL1       -0.3571
      9 N         137.8626  140.2359  158.4074 N.3     1  UNL1       -0.2939
     10 H         136.8427  140.2287  158.4218 H       1  UNL1        0.1235
     11 C         138.2808  141.6324  158.0540 C.3     1  UNL1        0.0954
     12 C         138.6365  142.6059  159.1383 C.2     1  UNL1       -0.0075
     13 C         140.0357  142.6504  159.6770 C.2     1  UNL1        0.0159
     14 C         140.3913  143.6240  160.7613 C.ar    1  UNL1        0.0811
     15 C         141.5107  143.3137  161.7104 C.ar    1  UNL1        0.0191
     16 C         141.8663  144.2872  162.7947 C.ar    1  UNL1        0.0031
     17 C         141.1025  145.5711  162.9299 C.ar    1  UNL1        0.0207
     18 C         139.9832  145.8814  161.9808 C.ar    1  UNL1        0.0988
     19 N         139.6275  144.9078  160.8965 N.ar    1  UNL1       -0.2438
     20 C         139.6853  137.7738  163.5665 C.3     1  UNL1        0.0604
     21 O         143.8204  140.7880  163.2537 O.2     1  UNL1       -0.2670
     22 C         143.0789  140.9462  164.5480 C.ar    1  UNL1        0.2611
     23 C         143.5742  141.9123  165.5829 C.ar    1  UNL1        0.0623
     24 C         142.8327  142.0705  166.8772 C.ar    1  UNL1        0.0254
     25 C         141.5958  141.2625  167.1365 C.ar    1  UNL1        0.0972
     26 N         140.6666  141.2144  168.3217 N.ar    1  UNL1       -0.2400
     27 C         139.4514  140.3429  168.4390 C.ar    1  UNL1        0.1282
     28 C         139.0782  139.4212  167.3160 C.ar    1  UNL1        0.1588
     29 F         137.8630  138.5498  167.4333 F       1  UNL1       -0.2027
     30 C         139.9202  139.3710  166.0756 C.ar    1  UNL1        0.0500
     31 C         141.1005  140.2963  166.1016 C.ar    1  UNL1        0.0806
     32 N         141.8420  140.1382  164.8073 N.ar    1  UNL1       -0.2915
     33 C         141.1200  139.1151  163.9815 C.3     1  UNL1        0.1402
     34 C         139.9323  138.6409  164.7654 C.3     1  UNL1        0.1335
     35 O         138.6929  137.9855  165.2986 O.3     1  UNL1       -0.3806
     36 H         138.3537  137.3547  164.6445 H       1  UNL1        0.2108
@<TRIPOS>BOND
     1    21    22    2
     2    22    23   ar
     3    23    24   ar
     4    24    25   ar
     5    25    26   ar
     6    26    27   ar
     7    27    28   ar
     8    28    29    1
     9    28    30   ar
    10    30    31   ar
    11    31    32   ar
    12    32    33    1
    13    33    34    1
    14    34    35    1
    15    34    20    1
    16    20     1    1
    17     1     2    1
    18     2     3    1
    19     3     4    1
    20     4     9    1
    21     9    11    1
    22    11    12    1
    23    12    13    2
    24    13    14    1
    25    14    15   ar
    26    15    16   ar
    27    16    17   ar
    28    17    18   ar
    29    18    19   ar
    30     4     5    1
    31     5     6    1
    32     4     7    1
    33     7     8    1
    34    32    22   ar
    35     6     1    1
    36    31    25   ar
    37     8     1    1
    38    34    30    1
    39    19    14   ar
    40    35    36    1
    41     9    10    1
@<TRIPOS>MOLECULE
*****
 36 41 0 0 0
SMALL
GASTEIGER

@<TRIPOS>ATOM
      1 C         138.5221  138.3488  163.2397 C.3     1  UNL1        0.0955
      2 C         138.2260  139.7530  163.6768 C.3     1  UNL1        0.0287
      3 C         138.2584  140.1074  165.1340 C.3     1  UNL1        0.0193
      4 C         138.5869  139.0579  166.1540 C.3     1  UNL1        0.0700
      5 C         138.8830  137.6539  165.7170 C.3     1  UNL1        0.0193
      6 C         138.8506  137.2993  164.2598 C.3     1  UNL1        0.0287
      7 C         138.5813  138.8160  165.3669 C.3     1  UNL1        0.1562
      8 O         138.5520  138.4955  164.0494 O.3     1  UNL1       -0.3571
      9 N         138.6193  139.4124  167.6112 N.3     1  UNL1       -0.2939
     10 H         138.4088  138.5579  168.1269 H       1  UNL1        0.1235
     11 C         139.8661  139.9870  168.2157 C.3     1  UNL1        0.0954
     12 C         140.9681  140.4865  167.3290 C.2     1  UNL1       -0.0075
     13 C         141.9619  139.5224  166.7522 C.2     1  UNL1        0.0159
     14 C         143.0639  140.0219  165.8655 C.ar    1  UNL1        0.0811
     15 C         143.9499  139.0469  165.1484 C.ar    1  UNL1        0.0191
     16 C         145.0519  139.5464  164.2618 C.ar    1  UNL1        0.0031
     17 C         145.2678  141.0212  164.0923 C.ar    1  UNL1        0.0207
     18 C         144.3818  141.9961  164.8094 C.ar    1  UNL1        0.0988
     19 N         143.2798  141.4966  165.6961 N.ar    1  UNL1       -0.2438
     20 C         138.4897  137.9944  161.7826 C.3     1  UNL1        0.0604
     21 O         137.1013  140.6088  157.5969 O.2     1  UNL1       -0.2670
     22 C         138.5836  140.3988  157.6895 C.ar    1  UNL1        0.2611
     23 C         139.4856  140.9361  156.6182 C.ar    1  UNL1        0.0623
     24 C         140.9679  140.7261  156.7107 C.ar    1  UNL1        0.0254
     25 C         141.5483  139.9787  157.8745 C.ar    1  UNL1        0.0972
     26 N         142.9709  139.6243  158.2225 N.ar    1  UNL1       -0.2400
     27 C         143.4042  138.8613  159.4391 C.ar    1  UNL1        0.1282
     28 C         142.3827  138.3847  160.4287 C.ar    1  UNL1        0.1588
     29 F         142.8160  137.6217  161.6452 F       1  UNL1       -0.2027
     30 C         140.9279  138.6711  160.2018 C.ar    1  UNL1        0.0500
     31 C         140.6464  139.4414  158.9458 C.ar    1  UNL1        0.0806
     32 N         139.1640  139.6514  158.8533 N.ar    1  UNL1       -0.2915
     33 C         138.5294  139.0109  160.0521 C.3     1  UNL1        0.1402
     34 C         139.6195  138.4050  160.8855 C.3     1  UNL1        0.1335
     35 O         140.4735  137.7133  161.9064 O.3     1  UNL1       -0.3806
     36 H         139.9102  137.3568  162.6110 H       1  UNL1        0.2108
@<TRIPOS>BOND
     1    21    22    2
     2    22    23   ar
     3    23    24   ar
     4    24    25   ar
     5    25    26   ar
     6    26    27   ar
     7    27    28   ar
     8    28    29    1
     9    28    30   ar
    10    30    31   ar
    11    31    32   ar
    12    32    33    1
    13    33    34    1
    14    34    35    1
    15    34    20    1
    16    20     1    1
    17     1     2    1
    18     2     3    1
    19     3     4    1
    20     4     9    1
    21     9    11    1
    22    11    12    1
    23    12    13    2
    24    13    14    1
    25    14    15   ar
    26    15    16   ar
    27    16    17   ar
    28    17    18   ar
    29    18    19   ar
    30     4     5    1
    31     5     6    1
    32     4     7    1
    33     7     8    1
    34    32    22   ar
    35     6     1    1
    36    31    25   ar
    37     8     1    1
    38    34    30    1
    39    19    14   ar
    40    35    36    1
    41     9    10    1
@<TRIPOS>MOLECULE
*****
 36 41 0 0 0
SMALL
GASTEIGER

@<TRIPOS>ATOM
      1 C         137.9463  140.5048  162.2849 C.3     1  UNL1        0.0955
      2 C         137.9289  141.8432  161.6076 C.3     1  UNL1        0.0287
      3 C         137.8357  143.0968  162.4260 C.3     1  UNL1        0.0193
      4 C         137.7600  143.0121  163.9217 C.3     1  UNL1        0.0700
      5 C         137.7774  141.6738  164.5990 C.3     1  UNL1        0.0193
      6 C         137.8705  140.4201  163.7806 C.3     1  UNL1        0.0287
      7 C         137.8099  142.2975  163.5155 C.3     1  UNL1        0.1562
      8 O         137.8941  141.1641  162.7755 O.3     1  UNL1       -0.3571
      9 N         137.6668  144.2657  164.7402 N.3     1  UNL1       -0.2939
     10 H         137.0736  144.0507  165.5416 H       1  UNL1        0.1235
     11 C         138.9125  144.9020  165.2817 C.3     1  UNL1        0.0954
     12 C         140.2365  144.2158  165.1199 C.2     1  UNL1       -0.0075
     13 C         141.1316  144.5742  163.9708 C.2     1  UNL1        0.0159
     14 C         142.4556  143.8879  163.8090 C.ar    1  UNL1        0.0811
     15 C         143.0171  143.0672  164.9320 C.ar    1  UNL1        0.0191
     16 C         144.3411  142.3809  164.7702 C.ar    1  UNL1        0.0031
     17 C         145.1035  142.5155  163.4854 C.ar    1  UNL1        0.0207
     18 C         144.5419  143.3362  162.3625 C.ar    1  UNL1        0.0988
     19 N         143.2179  144.0225  162.5243 N.ar    1  UNL1       -0.2438
     20 C         138.0395  139.2512  161.4665 C.3     1  UNL1        0.0604
     21 O         138.0878  139.7860  156.3680 O.2     1  UNL1       -0.2670
     22 C         139.3914  139.2846  156.9151 C.ar    1  UNL1        0.2611
     23 C         140.5337  138.9975  155.9864 C.ar    1  UNL1        0.0623
     24 C         141.8373  138.4961  156.5335 C.ar    1  UNL1        0.0254
     25 C         141.9985  138.2819  158.0093 C.ar    1  UNL1        0.0972
     26 N         143.1693  137.7966  158.8243 N.ar    1  UNL1       -0.2400
     27 C         143.1820  137.6311  160.3151 C.ar    1  UNL1        0.1282
     28 C         141.9575  137.9599  161.1166 C.ar    1  UNL1        0.1588
     29 F         141.9702  137.7944  162.6074 F       1  UNL1       -0.2027
     30 C         140.7202  138.4541  160.4274 C.ar    1  UNL1        0.0500
     31 C         140.8562  138.5690  158.9380 C.ar    1  UNL1        0.0806
     32 N         139.5526  139.0704  158.3909 N.ar    1  UNL1       -0.2915
     33 C         138.6111  139.2653  159.5422 C.3     1  UNL1        0.1402
     34 C         139.3327  138.8845  160.8009 C.3     1  UNL1        0.1335
     35 O         139.7840  138.5803  162.1986 O.3     1  UNL1       -0.3806
     36 H         139.0596  138.7590  162.8184 H       1  UNL1        0.2108
@<TRIPOS>BOND
     1    21    22    2
     2    22    23   ar
     3    23    24   ar
     4    24    25   ar
     5    25    26   ar
     6    26    27   ar
     7    27    28   ar
     8    28    29    1
     9    28    30   ar
    10    30    31   ar
    11    31    32   ar
    12    32    33    1
    13    33    34    1
    14    34    35    1
    15    34    20    1
    16    20     1    1
    17     1     2    1
    18     2     3    1
    19     3     4    1
    20     4     9    1
    21     9    11    1
    22    11    12    1
    23    12    13    2
    24    13    14    1
    25    14    15   ar
    26    15    16   ar
    27    16    17   ar
    28    17    18   ar
    29    18    19   ar
    30     4     5    1
    31     5     6    1
    32     4     7    1
    33     7     8    1
    34    32    22   ar
    35     6     1    1
    36    31    25   ar
    37     8     1    1
    38    34    30    1
    39    19    14   ar
    40    35    36    1
    41     9    10    1
@<TRIPOS>MOLECULE
*****
 36 41 0 0 0
SMALL
GASTEIGER

@<TRIPOS>ATOM
      1 C         138.7569  138.9827  164.1544 C.3     1  UNL1        0.0955
      2 C         138.1274  140.3033  163.8226 C.3     1  UNL1        0.0287
      3 C         137.6051  140.5589  162.4399 C.3     1  UNL1        0.0193
      4 C         137.7122  139.4940  161.3890 C.3     1  UNL1        0.0700
      5 C         138.3417  138.1735  161.7208 C.3     1  UNL1        0.0193
      6 C         138.8640  137.9178  163.1035 C.3     1  UNL1        0.0287
      7 C         138.0128  139.3076  162.1327 C.3     1  UNL1        0.1562
      8 O         138.4850  139.0765  163.3829 O.3     1  UNL1       -0.3571
      9 N         137.1899  139.7495  160.0063 N.3     1  UNL1       -0.2939
     10 H         136.4318  140.4256  160.0982 H       1  UNL1        0.1235
     11 C         138.1091  140.2716  158.9421 C.3     1  UNL1        0.0954
     12 C         139.5484  140.5465  159.2629 C.2     1  UNL1       -0.0075
     13 C         139.9534  141.8846  159.8064 C.2     1  UNL1        0.0159
     14 C         141.3927  142.1594  160.1272 C.ar    1  UNL1        0.0811
     15 C         142.4772  141.4182  159.4031 C.ar    1  UNL1        0.0191
     16 C         143.9165  141.6930  159.7239 C.ar    1  UNL1        0.0031
     17 C         144.2712  142.7091  160.7689 C.ar    1  UNL1        0.0207
     18 C         143.1866  143.4502  161.4929 C.ar    1  UNL1        0.0988
     19 N         141.7473  143.1754  161.1721 N.ar    1  UNL1       -0.2438
     20 C         139.2792  138.7272  165.5372 C.3     1  UNL1        0.0604
     21 O         138.0906  140.0683  170.3404 O.2     1  UNL1       -0.2670
     22 C         139.3334  140.7406  169.8368 C.ar    1  UNL1        0.2611
     23 C         140.0828  141.6917  170.7220 C.ar    1  UNL1        0.0623
     24 C         141.3256  142.3639  170.2184 C.ar    1  UNL1        0.0254
     25 C         141.8190  142.0850  168.8296 C.ar    1  UNL1        0.0972
     26 N         143.0132  142.6055  168.0724 N.ar    1  UNL1       -0.2400
     27 C         143.3836  142.2301  166.6682 C.ar    1  UNL1        0.1282
     28 C         142.5335  141.2604  165.9021 C.ar    1  UNL1        0.1588
     29 F         142.9039  140.8850  164.4979 F       1  UNL1       -0.2027
     30 C         141.3130  140.6661  166.5402 C.ar    1  UNL1        0.0500
     31 C         141.0695  141.1338  167.9444 C.ar    1  UNL1        0.0806
     32 N         139.8268  140.4616  168.4480 N.ar    1  UNL1       -0.2915
     33 C         139.3021  139.5784  167.3550 C.3     1  UNL1        0.1402
     34 C         140.2206  139.7048  166.1758 C.3     1  UNL1        0.1335
     35 O         140.9424  139.6268  164.8632 O.3     1  UNL1       -0.3806
     36 H         140.4745  139.0157  164.2728 H       1  UNL1        0.2108
@<TRIPOS>BOND
     1    21    22    2
     2    22    23   ar
     3    23    24   ar
     4    24    25   ar
     5    25    26   ar
     6    26    27   ar
     7    27    28   ar
     8    28    29    1
     9    28    30   ar
    10    30    31   ar
    11    31    32   ar
    12    32    33    1
    13    33    34    1
    14    34    35    1
    15    34    20    1
    16    20     1    1
    17     1     2    1
    18     2     3    1
    19     3     4    1
    20     4     9    1
    21     9    11    1
    22    11    12    1
    23    12    13    2
    24    13    14    1
    25    14    15   ar
    26    15    16   ar
    27    16    17   ar
    28    17    18   ar
    29    18    19   ar
    30     4     5    1
    31     5     6    1
    32     4     7    1
    33     7     8    1
    34    32    22   ar
    35     6     1    1
    36    31    25   ar
    37     8     1    1
    38    34    30    1
    39    19    14   ar
    40    35    36    1
    41     9    10    1
