@<TRIPOS>MOLECULE
*****
 34 37 0 0 0
SMALL
GASTEIGER

@<TRIPOS>ATOM
      1 C         142.5223  140.3680  168.1289 C.3     1  UNL1        0.1106
      2 C         142.7270  139.5751  166.8722 C.3     1  UNL1        0.0400
      3 C         143.3001  140.2356  165.6535 C.3     1  UNL1        0.0743
      4 N         143.6684  141.6892  165.6914 N.3     1  UNL1       -0.2652
      5 C         143.4637  142.4822  166.9481 C.3     1  UNL1        0.1098
      6 C         142.8907  141.8217  168.1669 C.3     1  UNL1        0.1948
      7 F         142.6860  142.6147  169.4235 F       1  UNL1       -0.2340
      8 C         142.7996  138.7862  170.1712 C.3     1  UNL1        0.1149
      9 N         141.9493  139.7075  169.3476 N.am    1  UNL1       -0.2763
     10 C         140.5259  139.9682  169.7428 C.2     1  UNL1        0.2301
     11 O         139.9529  139.3076  170.9615 O.2     1  UNL1       -0.2745
     12 C         139.6756  140.8894  168.9192 C.3     1  UNL1        0.1116
     13 C         139.3278  140.5262  167.5060 C.ar    1  UNL1       -0.0130
     14 C         139.6512  141.4717  166.3873 C.ar    1  UNL1       -0.0022
     15 C         139.3033  141.1085  164.9742 C.ar    1  UNL1        0.0190
     16 C         138.6321  139.7998  164.6797 C.ar    1  UNL1        0.0862
     17 C         138.3087  138.8543  165.7984 C.ar    1  UNL1        0.0190
     18 C         138.6566  139.2175  167.2115 C.ar    1  UNL1       -0.0022
     19 N         138.2842  139.4365  163.2665 N.ar    1  UNL1       -0.1886
     20 C         137.7202  140.3639  162.2312 C.ar    1  UNL1        0.2258
     21 N         137.5267  139.5828  160.9653 N.ar    1  UNL1       -0.1045
     22 N         137.9712  138.1726  161.2183 N.ar    1  UNL1       -0.0222
     23 N         138.4393  138.0823  162.6405 N.ar    1  UNL1       -0.0385
     24 C         144.2414  142.3497  164.4727 C.3     1  UNL1        0.1187
     25 C         143.3450  143.1079  163.5391 C.ar    1  UNL1        0.0752
     26 C         142.6664  144.3621  164.0043 C.ar    1  UNL1        0.0161
     27 C         141.7700  145.1203  163.0707 C.ar    1  UNL1        0.0067
     28 C         141.5523  144.6243  161.6719 C.ar    1  UNL1        0.0905
     29 C         142.2310  143.3701  161.2067 C.ar    1  UNL1        0.1023
     30 N         143.1273  142.6119  162.1403 N.ar    1  UNL1       -0.2468
     31 C         140.6559  145.3825  160.7383 C.3     1  UNL1        0.4200
     32 F         139.7595  146.1407  159.8047 F       1  UNL1       -0.1658
     33 F         141.1081  144.5160  159.6005 F       1  UNL1       -0.1658
     34 F         140.2037  146.2490  161.8761 F       1  UNL1       -0.1658
@<TRIPOS>BOND
     1     8     9    1
     2     9    10   am
     3    10    11    2
     4    10    12    1
     5    12    13    1
     6    13    14   ar
     7    14    15   ar
     8    15    16   ar
     9    16    19    1
    10    19    20   ar
    11    20    21   ar
    12    21    22   ar
    13    22    23   ar
    14    16    17   ar
    15    17    18   ar
    16     1     9    1
    17     1     2    1
    18     2     3    1
    19     3     4    1
    20     4    24    1
    21    24    25    1
    22    25    26   ar
    23    26    27   ar
    24    27    28   ar
    25    28    31    1
    26    31    32    1
    27    31    33    1
    28    31    34    1
    29    28    29   ar
    30    29    30   ar
    31     4     5    1
    32     5     6    1
    33     6     7    1
    34    18    13   ar
    35     6     1    1
    36    23    19   ar
    37    30    25   ar
@<TRIPOS>MOLECULE
*****
 34 37 0 0 0
SMALL
GASTEIGER

@<TRIPOS>ATOM
      1 C         143.1926  140.9345  161.7122 C.3     1  UNL1        0.1106
      2 C         144.4981  141.0538  162.4411 C.3     1  UNL1        0.0400
      3 C         144.5326  141.6185  163.8303 C.3     1  UNL1        0.0743
      4 N         143.2616  142.0638  164.4907 N.3     1  UNL1       -0.2652
      5 C         141.9560  141.9444  163.7618 C.3     1  UNL1        0.1098
      6 C         141.9215  141.3798  162.3726 C.3     1  UNL1        0.1948
      7 F         140.6159  141.2604  161.6437 F       1  UNL1       -0.2340
      8 C         143.0542  141.2889  159.1422 C.3     1  UNL1        0.1149
      9 N         143.1581  140.3698  160.3230 N.am    1  UNL1       -0.2763
     10 C         143.2276  138.8859  160.1146 C.2     1  UNL1        0.2301
     11 O         143.1931  138.3213  158.7254 O.2     1  UNL1       -0.2745
     12 C         143.3315  137.9668  161.2954 C.3     1  UNL1        0.1116
     13 C         142.2886  138.0089  162.3728 C.ar    1  UNL1       -0.0130
     14 C         140.8358  137.9031  162.0149 C.ar    1  UNL1       -0.0022
     15 C         139.7930  137.9453  163.0922 C.ar    1  UNL1        0.0190
     16 C         140.2030  138.0933  164.5275 C.ar    1  UNL1        0.0862
     17 C         141.6558  138.1991  164.8854 C.ar    1  UNL1        0.0190
     18 C         142.6986  138.1569  163.8081 C.ar    1  UNL1       -0.0022
     19 N         139.1601  138.1354  165.6049 N.ar    1  UNL1       -0.1886
     20 C         138.9304  139.2640  166.5659 C.ar    1  UNL1        0.2258
     21 N         137.7922  138.8825  167.4653 N.ar    1  UNL1       -0.1045
     22 N         137.3185  137.5181  167.0602 N.ar    1  UNL1       -0.0222
     23 N         138.1639  137.0564  165.9103 N.ar    1  UNL1       -0.0385
     24 C         143.2961  142.6285  165.8799 C.3     1  UNL1        0.1187
     25 C         142.5124  141.9705  166.9766 C.ar    1  UNL1        0.0752
     26 C         141.2736  142.6263  167.5106 C.ar    1  UNL1        0.0161
     27 C         140.4898  141.9683  168.6074 C.ar    1  UNL1        0.0067
     28 C         140.9449  140.6545  169.1701 C.ar    1  UNL1        0.0905
     29 C         142.1838  139.9986  168.6360 C.ar    1  UNL1        0.1023
     30 N         142.9675  140.6566  167.5393 N.ar    1  UNL1       -0.2468
     31 C         140.1613  139.9965  170.2668 C.3     1  UNL1        0.4200
     32 F         139.3776  139.3385  171.3635 F       1  UNL1       -0.1658
     33 F         141.2485  138.9763  170.4316 F       1  UNL1       -0.1658
     34 F         139.0740  141.0166  170.1020 F       1  UNL1       -0.1658
@<TRIPOS>BOND
     1     8     9    1
     2     9    10   am
     3    10    11    2
     4    10    12    1
     5    12    13    1
     6    13    14   ar
     7    14    15   ar
     8    15    16   ar
     9    16    19    1
    10    19    20   ar
    11    20    21   ar
    12    21    22   ar
    13    22    23   ar
    14    16    17   ar
    15    17    18   ar
    16     1     9    1
    17     1     2    1
    18     2     3    1
    19     3     4    1
    20     4    24    1
    21    24    25    1
    22    25    26   ar
    23    26    27   ar
    24    27    28   ar
    25    28    31    1
    26    31    32    1
    27    31    33    1
    28    31    34    1
    29    28    29   ar
    30    29    30   ar
    31     4     5    1
    32     5     6    1
    33     6     7    1
    34    18    13   ar
    35     6     1    1
    36    23    19   ar
    37    30    25   ar
@<TRIPOS>MOLECULE
*****
 34 37 0 0 0
SMALL
GASTEIGER

@<TRIPOS>ATOM
      1 C         141.3556  142.6204  167.8705 C.3     1  UNL1        0.1106
      2 C         140.4190  142.8893  166.7301 C.3     1  UNL1        0.0400
      3 C         140.9469  142.9667  165.3282 C.3     1  UNL1        0.0743
      4 N         142.4115  142.7753  165.0667 N.3     1  UNL1       -0.2652
      5 C         143.3482  142.5065  166.2071 C.3     1  UNL1        0.1098
      6 C         142.8202  142.4291  167.6090 C.3     1  UNL1        0.1948
      7 F         143.7568  142.1602  168.7493 F       1  UNL1       -0.2340
      8 C         140.4623  143.7989  170.0066 C.3     1  UNL1        0.1149
      9 N         140.8277  142.5430  169.2723 N.am    1  UNL1       -0.2763
     10 C         140.6651  141.2095  169.9399 C.2     1  UNL1        0.2301
     11 O         140.1372  141.1321  171.3418 O.2     1  UNL1       -0.2745
     12 C         141.0305  139.9537  169.2057 C.3     1  UNL1        0.1116
     13 C         140.4692  139.6936  167.8391 C.ar    1  UNL1       -0.0130
     14 C         138.9860  139.7293  167.6182 C.ar    1  UNL1       -0.0022
     15 C         138.4248  139.4692  166.2517 C.ar    1  UNL1        0.0190
     16 C         139.3468  139.1734  165.1061 C.ar    1  UNL1        0.0862
     17 C         140.8300  139.1377  165.3270 C.ar    1  UNL1        0.0190
     18 C         141.3912  139.3978  166.6935 C.ar    1  UNL1       -0.0022
     19 N         138.7855  138.9133  163.7396 N.ar    1  UNL1       -0.1886
     20 C         138.0255  139.8945  162.8972 C.ar    1  UNL1        0.2258
     21 N         137.6559  139.2140  161.6125 N.ar    1  UNL1       -0.1045
     22 N         138.1876  137.8122  161.6610 N.ar    1  UNL1       -0.0222
     23 N         138.8857  137.6263  162.9755 N.ar    1  UNL1       -0.0385
     24 C         142.9394  142.8528  163.6648 C.3     1  UNL1        0.1187
     25 C         142.9617  141.6254  162.8029 C.ar    1  UNL1        0.0752
     26 C         141.6779  141.0544  162.2777 C.ar    1  UNL1        0.0161
     27 C         141.7002  139.8269  161.4157 C.ar    1  UNL1        0.0067
     28 C         143.0062  139.1705  161.0790 C.ar    1  UNL1        0.0905
     29 C         144.2900  139.7416  161.6043 C.ar    1  UNL1        0.1023
     30 N         144.2677  140.9690  162.4662 N.ar    1  UNL1       -0.2468
     31 C         143.0285  137.9431  160.2171 C.3     1  UNL1        0.4200
     32 F         143.0508  136.7157  159.3552 F       1  UNL1       -0.1658
     33 F         144.0553  137.3273  161.1207 F       1  UNL1       -0.1658
     34 F         142.0018  138.5590  159.3135 F       1  UNL1       -0.1658
@<TRIPOS>BOND
     1     8     9    1
     2     9    10   am
     3    10    11    2
     4    10    12    1
     5    12    13    1
     6    13    14   ar
     7    14    15   ar
     8    15    16   ar
     9    16    19    1
    10    19    20   ar
    11    20    21   ar
    12    21    22   ar
    13    22    23   ar
    14    16    17   ar
    15    17    18   ar
    16     1     9    1
    17     1     2    1
    18     2     3    1
    19     3     4    1
    20     4    24    1
    21    24    25    1
    22    25    26   ar
    23    26    27   ar
    24    27    28   ar
    25    28    31    1
    26    31    32    1
    27    31    33    1
    28    31    34    1
    29    28    29   ar
    30    29    30   ar
    31     4     5    1
    32     5     6    1
    33     6     7    1
    34    18    13   ar
    35     6     1    1
    36    23    19   ar
    37    30    25   ar
@<TRIPOS>MOLECULE
*****
 34 37 0 0 0
SMALL
GASTEIGER

@<TRIPOS>ATOM
      1 C         142.5878  140.5465  167.9853 C.3     1  UNL1        0.1106
      2 C         142.9867  141.9892  168.0816 C.3     1  UNL1        0.0400
      3 C         143.5366  142.6972  166.8790 C.3     1  UNL1        0.0743
      4 N         143.6876  141.9624  165.5800 N.3     1  UNL1       -0.2652
      5 C         143.2887  140.5196  165.4837 C.3     1  UNL1        0.1098
      6 C         142.7388  139.8117  166.6864 C.3     1  UNL1        0.1948
      7 F         142.3398  138.3689  166.5901 F       1  UNL1       -0.2340
      8 C         142.9306  138.9624  170.0159 C.3     1  UNL1        0.1149
      9 N         142.0379  139.8385  169.1880 N.am    1  UNL1       -0.2763
     10 C         140.5952  140.0067  169.5628 C.2     1  UNL1        0.2301
     11 O         140.0452  139.2988  170.7654 O.2     1  UNL1       -0.2745
     12 C         139.7024  140.8829  168.7349 C.3     1  UNL1        0.1116
     13 C         139.4049  140.5180  167.3106 C.ar    1  UNL1       -0.0130
     14 C         139.6641  141.5071  166.2132 C.ar    1  UNL1       -0.0022
     15 C         139.3666  141.1423  164.7890 C.ar    1  UNL1        0.0190
     16 C         138.8099  139.7882  164.4623 C.ar    1  UNL1        0.0862
     17 C         138.5508  138.7991  165.5597 C.ar    1  UNL1        0.0190
     18 C         138.8483  139.1640  166.9839 C.ar    1  UNL1       -0.0022
     19 N         138.5124  139.4234  163.0380 N.ar    1  UNL1       -0.1886
     20 C         138.9537  138.1724  162.3377 C.ar    1  UNL1        0.2258
     21 N         138.4355  138.2212  160.9310 N.ar    1  UNL1       -0.1045
     22 N         137.6738  139.5025  160.7618 N.ar    1  UNL1       -0.0222
     23 N         137.7214  140.2454  162.0641 N.ar    1  UNL1       -0.0385
     24 C         144.2375  142.6704  164.3774 C.3     1  UNL1        0.1187
     25 C         143.3103  143.3795  163.4354 C.ar    1  UNL1        0.0752
     26 C         142.3748  144.4312  163.9538 C.ar    1  UNL1        0.0161
     27 C         141.4475  145.1404  163.0118 C.ar    1  UNL1        0.0067
     28 C         141.4558  144.7979  161.5515 C.ar    1  UNL1        0.0905
     29 C         142.3913  143.7461  161.0331 C.ar    1  UNL1        0.1023
     30 N         143.3185  143.0370  161.9751 N.ar    1  UNL1       -0.2468
     31 C         140.5285  145.5070  160.6095 C.3     1  UNL1        0.4200
     32 F         139.6013  146.2161  159.6676 F       1  UNL1       -0.1658
     33 F         141.4828  145.2545  159.4801 F       1  UNL1       -0.1658
     34 F         139.5743  145.7595  161.7389 F       1  UNL1       -0.1658
@<TRIPOS>BOND
     1     8     9    1
     2     9    10   am
     3    10    11    2
     4    10    12    1
     5    12    13    1
     6    13    14   ar
     7    14    15   ar
     8    15    16   ar
     9    16    19    1
    10    19    20   ar
    11    20    21   ar
    12    21    22   ar
    13    22    23   ar
    14    16    17   ar
    15    17    18   ar
    16     1     9    1
    17     1     2    1
    18     2     3    1
    19     3     4    1
    20     4    24    1
    21    24    25    1
    22    25    26   ar
    23    26    27   ar
    24    27    28   ar
    25    28    31    1
    26    31    32    1
    27    31    33    1
    28    31    34    1
    29    28    29   ar
    30    29    30   ar
    31     4     5    1
    32     5     6    1
    33     6     7    1
    34    18    13   ar
    35     6     1    1
    36    23    19   ar
    37    30    25   ar
@<TRIPOS>MOLECULE
*****
 34 37 0 0 0
SMALL
GASTEIGER

@<TRIPOS>ATOM
      1 C         140.3136  142.0878  168.5814 C.3     1  UNL1        0.1106
      2 C         140.1993  142.4021  167.1192 C.3     1  UNL1        0.0400
      3 C         139.5407  141.4249  166.1912 C.3     1  UNL1        0.0743
      4 N         138.9963  140.1333  166.7253 N.3     1  UNL1       -0.2652
      5 C         139.1105  139.8189  168.1876 C.3     1  UNL1        0.1098
      6 C         139.7691  140.7961  169.1157 C.3     1  UNL1        0.1948
      7 F         139.8834  140.4817  170.5778 F       1  UNL1       -0.2340
      8 C         140.2102  144.2573  170.0071 C.3     1  UNL1        0.1149
      9 N         140.9722  143.0650  169.5094 N.am    1  UNL1       -0.2763
     10 C         142.3930  142.8498  169.9399 C.2     1  UNL1        0.2301
     11 O         143.0516  143.8270  170.8679 O.2     1  UNL1       -0.2745
     12 C         143.1550  141.6575  169.4422 C.3     1  UNL1        0.1116
     13 C         143.2368  141.3806  167.9703 C.ar    1  UNL1       -0.0130
     14 C         142.9524  140.0030  167.4494 C.ar    1  UNL1       -0.0022
     15 C         143.0342  139.7261  165.9774 C.ar    1  UNL1        0.0190
     16 C         143.4004  140.8268  165.0264 C.ar    1  UNL1        0.0862
     17 C         143.6848  142.2044  165.5473 C.ar    1  UNL1        0.0190
     18 C         143.6030  142.4813  167.0192 C.ar    1  UNL1       -0.0022
     19 N         143.4822  140.5498  163.5544 N.ar    1  UNL1       -0.1886
     20 C         142.6634  141.2116  162.4859 C.ar    1  UNL1        0.2258
     21 N         143.0722  140.6333  161.1637 N.ar    1  UNL1       -0.1045
     22 N         144.1438  139.6141  161.4150 N.ar    1  UNL1       -0.0222
     23 N         144.3971  139.5625  162.8925 N.ar    1  UNL1       -0.0385
     24 C         138.3376  139.1561  165.7973 C.3     1  UNL1        0.1187
     25 C         138.8746  138.9599  164.4106 C.ar    1  UNL1        0.0752
     26 C         140.1243  138.1583  164.1968 C.ar    1  UNL1        0.0161
     27 C         140.6614  137.9621  162.8100 C.ar    1  UNL1        0.0067
     28 C         139.9487  138.5674  161.6371 C.ar    1  UNL1        0.0905
     29 C         138.6990  139.3689  161.8510 C.ar    1  UNL1        0.1023
     30 N         138.1619  139.5652  163.2377 N.ar    1  UNL1       -0.2468
     31 C         140.4857  138.3711  160.2504 C.3     1  UNL1        0.4200
     32 F         141.0227  138.1749  158.8636 F       1  UNL1       -0.1658
     33 F         141.6973  137.6911  160.8158 F       1  UNL1       -0.1658
     34 F         139.2742  139.0511  159.6849 F       1  UNL1       -0.1658
@<TRIPOS>BOND
     1     8     9    1
     2     9    10   am
     3    10    11    2
     4    10    12    1
     5    12    13    1
     6    13    14   ar
     7    14    15   ar
     8    15    16   ar
     9    16    19    1
    10    19    20   ar
    11    20    21   ar
    12    21    22   ar
    13    22    23   ar
    14    16    17   ar
    15    17    18   ar
    16     1     9    1
    17     1     2    1
    18     2     3    1
    19     3     4    1
    20     4    24    1
    21    24    25    1
    22    25    26   ar
    23    26    27   ar
    24    27    28   ar
    25    28    31    1
    26    31    32    1
    27    31    33    1
    28    31    34    1
    29    28    29   ar
    30    29    30   ar
    31     4     5    1
    32     5     6    1
    33     6     7    1
    34    18    13   ar
    35     6     1    1
    36    23    19   ar
    37    30    25   ar
@<TRIPOS>MOLECULE
*****
 34 37 0 0 0
SMALL
GASTEIGER

@<TRIPOS>ATOM
      1 C         141.8167  139.5885  167.6343 C.3     1  UNL1        0.1106
      2 C         143.0356  138.9549  167.0322 C.3     1  UNL1        0.0400
      3 C         142.9538  138.3040  165.6832 C.3     1  UNL1        0.0743
      4 N         141.6530  138.2868  164.9364 N.3     1  UNL1       -0.2652
      5 C         140.4340  138.9205  165.5386 C.3     1  UNL1        0.1098
      6 C         140.5159  139.5714  166.8876 C.3     1  UNL1        0.1948
      7 F         139.2969  140.2051  167.4897 F       1  UNL1       -0.2340
      8 C         141.3560  139.5338  170.1906 C.3     1  UNL1        0.1149
      9 N         141.8985  140.2394  168.9833 N.am    1  UNL1       -0.2763
     10 C         142.5230  141.5959  169.1249 C.2     1  UNL1        0.2301
     11 O         142.6048  142.2468  170.4739 O.2     1  UNL1       -0.2745
     12 C         143.0655  142.3015  167.9176 C.3     1  UNL1        0.1116
     13 C         142.2079  142.4691  166.6983 C.ar    1  UNL1       -0.0130
     14 C         142.7681  142.1668  165.3401 C.ar    1  UNL1       -0.0022
     15 C         141.9105  142.3344  164.1209 C.ar    1  UNL1        0.0190
     16 C         140.4928  142.8042  164.2599 C.ar    1  UNL1        0.0862
     17 C         139.9327  143.1066  165.6181 C.ar    1  UNL1        0.0190
     18 C         140.7902  142.9390  166.8373 C.ar    1  UNL1       -0.0022
     19 N         139.6352  142.9718  163.0406 N.ar    1  UNL1       -0.1886
     20 C         138.1658  142.6846  162.9500 C.ar    1  UNL1        0.2258
     21 N         137.7189  142.9912  161.5514 N.ar    1  UNL1       -0.1045
     22 N         138.9122  143.4680  160.7776 N.ar    1  UNL1       -0.0222
     23 N         140.0966  143.4560  161.6980 N.ar    1  UNL1       -0.0385
     24 C         141.5712  137.6360  163.5875 C.3     1  UNL1        0.1187
     25 C         140.7362  138.2545  162.5057 C.ar    1  UNL1        0.0752
     26 C         141.2777  139.3997  161.7026 C.ar    1  UNL1        0.0161
     27 C         140.4427  140.0182  160.6208 C.ar    1  UNL1        0.0067
     28 C         139.0661  139.4915  160.3422 C.ar    1  UNL1        0.0905
     29 C         138.5246  138.3462  161.1455 C.ar    1  UNL1        0.1023
     30 N         139.3596  137.7277  162.2272 N.ar    1  UNL1       -0.2468
     31 C         138.2311  140.1099  159.2605 C.3     1  UNL1        0.4200
     32 F         137.3960  140.7284  158.1788 F       1  UNL1       -0.1658
     33 F         136.9879  139.7857  160.0347 F       1  UNL1       -0.1658
     34 F         139.4742  140.4342  158.4863 F       1  UNL1       -0.1658
@<TRIPOS>BOND
     1     8     9    1
     2     9    10   am
     3    10    11    2
     4    10    12    1
     5    12    13    1
     6    13    14   ar
     7    14    15   ar
     8    15    16   ar
     9    16    19    1
    10    19    20   ar
    11    20    21   ar
    12    21    22   ar
    13    22    23   ar
    14    16    17   ar
    15    17    18   ar
    16     1     9    1
    17     1     2    1
    18     2     3    1
    19     3     4    1
    20     4    24    1
    21    24    25    1
    22    25    26   ar
    23    26    27   ar
    24    27    28   ar
    25    28    31    1
    26    31    32    1
    27    31    33    1
    28    31    34    1
    29    28    29   ar
    30    29    30   ar
    31     4     5    1
    32     5     6    1
    33     6     7    1
    34    18    13   ar
    35     6     1    1
    36    23    19   ar
    37    30    25   ar
@<TRIPOS>MOLECULE
*****
 34 37 0 0 0
SMALL
GASTEIGER

@<TRIPOS>ATOM
      1 C         141.7222  140.0231  166.7679 C.3     1  UNL1        0.1106
      2 C         142.4803  138.8409  166.2411 C.3     1  UNL1        0.0400
      3 C         143.6012  139.0430  165.2650 C.3     1  UNL1        0.0743
      4 N         143.9639  140.4274  164.8157 N.3     1  UNL1       -0.2652
      5 C         143.2058  141.6097  165.3425 C.3     1  UNL1        0.1098
      6 C         142.0849  141.4075  166.3186 C.3     1  UNL1        0.1948
      7 F         141.3268  142.5898  166.8454 F       1  UNL1       -0.2340
      8 C         140.8450  139.9990  169.2132 C.3     1  UNL1        0.1149
      9 N         140.6013  139.8210  167.7440 N.am    1  UNL1       -0.2763
     10 C         139.2366  139.4408  167.2507 C.2     1  UNL1        0.2301
     11 O         138.1157  139.2386  168.2268 O.2     1  UNL1       -0.2745
     12 C         138.9929  139.2627  165.7814 C.3     1  UNL1        0.1116
     13 C         139.1017  140.4377  164.8553 C.ar    1  UNL1       -0.0130
     14 C         139.9253  140.3342  163.6059 C.ar    1  UNL1       -0.0022
     15 C         140.0341  141.5091  162.6799 C.ar    1  UNL1        0.0190
     16 C         139.3193  142.7876  163.0032 C.ar    1  UNL1        0.0862
     17 C         138.4957  142.8911  164.2525 C.ar    1  UNL1        0.0190
     18 C         138.3869  141.7162  165.1786 C.ar    1  UNL1       -0.0022
     19 N         139.4281  143.9626  162.0770 N.ar    1  UNL1       -0.1886
     20 C         139.3930  145.4076  162.4781 C.ar    1  UNL1        0.2258
     21 N         139.5343  146.2369  161.2363 N.ar    1  UNL1       -0.1045
     22 N         139.6567  145.3045  160.0677 N.ar    1  UNL1       -0.0222
     23 N         139.5911  143.8989  160.5873 N.ar    1  UNL1       -0.0385
     24 C         145.0848  140.6295  163.8396 C.3     1  UNL1        0.1187
     25 C         144.7823  140.9601  162.4081 C.ar    1  UNL1        0.0752
     26 C         144.1515  139.9309  161.5179 C.ar    1  UNL1        0.0161
     27 C         143.8489  140.2615  160.0863 C.ar    1  UNL1        0.0067
     28 C         144.1773  141.6214  159.5451 C.ar    1  UNL1        0.0905
     29 C         144.8082  142.6507  160.4355 C.ar    1  UNL1        0.1023
     30 N         145.1107  142.3200  161.8670 N.ar    1  UNL1       -0.2468
     31 C         143.8748  141.9521  158.1137 C.3     1  UNL1        0.4200
     32 F         143.5723  142.2828  156.6822 F       1  UNL1       -0.1658
     33 F         143.3472  143.2917  158.5346 F       1  UNL1       -0.1658
     34 F         144.4024  140.6125  157.6928 F       1  UNL1       -0.1658
@<TRIPOS>BOND
     1     8     9    1
     2     9    10   am
     3    10    11    2
     4    10    12    1
     5    12    13    1
     6    13    14   ar
     7    14    15   ar
     8    15    16   ar
     9    16    19    1
    10    19    20   ar
    11    20    21   ar
    12    21    22   ar
    13    22    23   ar
    14    16    17   ar
    15    17    18   ar
    16     1     9    1
    17     1     2    1
    18     2     3    1
    19     3     4    1
    20     4    24    1
    21    24    25    1
    22    25    26   ar
    23    26    27   ar
    24    27    28   ar
    25    28    31    1
    26    31    32    1
    27    31    33    1
    28    31    34    1
    29    28    29   ar
    30    29    30   ar
    31     4     5    1
    32     5     6    1
    33     6     7    1
    34    18    13   ar
    35     6     1    1
    36    23    19   ar
    37    30    25   ar
@<TRIPOS>MOLECULE
*****
 34 37 0 0 0
SMALL
GASTEIGER

@<TRIPOS>ATOM
      1 C         139.0489  138.7110  165.0655 C.3     1  UNL1        0.1106
      2 C         140.0658  137.6753  164.6872 C.3     1  UNL1        0.0400
      3 C         140.4620  137.5028  163.2508 C.3     1  UNL1        0.0743
      4 N         139.8413  138.3661  162.1927 N.3     1  UNL1       -0.2652
      5 C         138.8244  139.4019  162.5710 C.3     1  UNL1        0.1098
      6 C         138.4282  139.5744  164.0074 C.3     1  UNL1        0.1948
      7 F         137.4113  140.6101  164.3858 F       1  UNL1       -0.2340
      8 C         137.4314  138.1921  167.0313 C.3     1  UNL1        0.1149
      9 N         138.6527  138.8835  166.5019 N.am    1  UNL1       -0.2763
     10 C         139.4779  139.7474  167.4090 C.2     1  UNL1        0.2301
     11 O         139.0817  139.9199  168.8454 O.2     1  UNL1       -0.2745
     12 C         140.6993  140.4388  166.8797 C.3     1  UNL1        0.1116
     13 C         140.5731  141.4372  165.7673 C.ar    1  UNL1       -0.0130
     14 C         141.4402  141.3165  164.5493 C.ar    1  UNL1       -0.0022
     15 C         141.3140  142.3148  163.4369 C.ar    1  UNL1        0.0190
     16 C         140.3207  143.4339  163.5426 C.ar    1  UNL1        0.0862
     17 C         139.4536  143.5546  164.7606 C.ar    1  UNL1        0.0190
     18 C         139.5798  142.5562  165.8729 C.ar    1  UNL1       -0.0022
     19 N         140.1945  144.4323  162.4302 N.ar    1  UNL1       -0.1886
     20 C         141.1597  144.6160  161.2967 C.ar    1  UNL1        0.2258
     21 N         140.6428  145.7194  160.4219 N.ar    1  UNL1       -0.1045
     22 N         139.3581  146.2176  161.0148 N.ar    1  UNL1       -0.0222
     23 N         139.0811  145.4221  162.2559 N.ar    1  UNL1       -0.0385
     24 C         140.2375  138.1936  160.7563 C.3     1  UNL1        0.1187
     25 C         141.2902  139.0784  160.1572 C.ar    1  UNL1        0.0752
     26 C         142.3081  139.7368  161.0406 C.ar    1  UNL1        0.0161
     27 C         143.3609  140.6216  160.4415 C.ar    1  UNL1        0.0067
     28 C         143.3957  140.8480  158.9591 C.ar    1  UNL1        0.0905
     29 C         142.3778  140.1895  158.0757 C.ar    1  UNL1        0.1023
     30 N         141.3251  139.3047  158.6748 N.ar    1  UNL1       -0.2468
     31 C         144.4485  141.7328  158.3600 C.3     1  UNL1        0.4200
     32 F         145.5012  142.6175  157.7610 F       1  UNL1       -0.1658
     33 F         144.9458  140.5827  157.5354 F       1  UNL1       -0.1658
     34 F         143.9511  142.8828  159.1846 F       1  UNL1       -0.1658
@<TRIPOS>BOND
     1     8     9    1
     2     9    10   am
     3    10    11    2
     4    10    12    1
     5    12    13    1
     6    13    14   ar
     7    14    15   ar
     8    15    16   ar
     9    16    19    1
    10    19    20   ar
    11    20    21   ar
    12    21    22   ar
    13    22    23   ar
    14    16    17   ar
    15    17    18   ar
    16     1     9    1
    17     1     2    1
    18     2     3    1
    19     3     4    1
    20     4    24    1
    21    24    25    1
    22    25    26   ar
    23    26    27   ar
    24    27    28   ar
    25    28    31    1
    26    31    32    1
    27    31    33    1
    28    31    34    1
    29    28    29   ar
    30    29    30   ar
    31     4     5    1
    32     5     6    1
    33     6     7    1
    34    18    13   ar
    35     6     1    1
    36    23    19   ar
    37    30    25   ar
@<TRIPOS>MOLECULE
*****
 34 37 0 0 0
SMALL
GASTEIGER

@<TRIPOS>ATOM
      1 C         142.7283  140.4848  166.9432 C.3     1  UNL1        0.1106
      2 C         142.7611  139.0223  166.6115 C.3     1  UNL1        0.0400
      3 C         143.2866  138.5663  165.2826 C.3     1  UNL1        0.0743
      4 N         143.7792  139.5728  164.2854 N.3     1  UNL1       -0.2652
      5 C         143.7464  141.0353  164.6172 C.3     1  UNL1        0.1098
      6 C         143.2209  141.4913  165.9461 C.3     1  UNL1        0.1948
      7 F         143.1881  142.9538  166.2778 F       1  UNL1       -0.2340
      8 C         143.1550  141.2510  169.3888 C.3     1  UNL1        0.1149
      9 N         142.2028  140.9408  168.2721 N.am    1  UNL1       -0.2763
     10 C         140.7250  141.0865  168.4843 C.2     1  UNL1        0.2301
     11 O         140.1995  141.5425  169.8132 O.2     1  UNL1       -0.2745
     12 C         139.7728  140.7763  167.3676 C.3     1  UNL1        0.1116
     13 C         139.7572  141.6320  166.1357 C.ar    1  UNL1       -0.0130
     14 C         139.8594  143.1235  166.2572 C.ar    1  UNL1       -0.0022
     15 C         139.8438  143.9791  165.0253 C.ar    1  UNL1        0.0190
     16 C         139.7260  143.3432  163.6719 C.ar    1  UNL1        0.0862
     17 C         139.6238  141.8517  163.5504 C.ar    1  UNL1        0.0190
     18 C         139.6394  140.9961  164.7823 C.ar    1  UNL1       -0.0022
     19 N         139.7104  144.1989  162.4399 N.ar    1  UNL1       -0.1886
     20 C         139.8474  143.7133  161.0273 C.ar    1  UNL1        0.2258
     21 N         139.7768  144.9046  160.1187 N.ar    1  UNL1       -0.1045
     22 N         139.5962  146.1266  160.9697 N.ar    1  UNL1       -0.0222
     23 N         139.5551  145.6904  162.4043 N.ar    1  UNL1       -0.0385
     24 C         144.3047  139.1168  162.9566 C.3     1  UNL1        0.1187
     25 C         143.3649  138.9291  161.8027 C.ar    1  UNL1        0.0752
     26 C         141.8882  139.1004  162.0028 C.ar    1  UNL1        0.0161
     27 C         140.9482  138.9127  160.8489 C.ar    1  UNL1        0.0067
     28 C         141.4850  138.5538  159.4950 C.ar    1  UNL1        0.0905
     29 C         142.9618  138.3825  159.2950 C.ar    1  UNL1        0.1023
     30 N         143.9017  138.5702  160.4488 N.ar    1  UNL1       -0.2468
     31 C         140.5452  138.3661  158.3412 C.3     1  UNL1        0.4200
     32 F         139.6053  138.1784  157.1874 F       1  UNL1       -0.1658
     33 F         141.7081  138.3663  157.3939 F       1  UNL1       -0.1658
     34 F         139.3822  138.3659  159.2885 F       1  UNL1       -0.1658
@<TRIPOS>BOND
     1     8     9    1
     2     9    10   am
     3    10    11    2
     4    10    12    1
     5    12    13    1
     6    13    14   ar
     7    14    15   ar
     8    15    16   ar
     9    16    19    1
    10    19    20   ar
    11    20    21   ar
    12    21    22   ar
    13    22    23   ar
    14    16    17   ar
    15    17    18   ar
    16     1     9    1
    17     1     2    1
    18     2     3    1
    19     3     4    1
    20     4    24    1
    21    24    25    1
    22    25    26   ar
    23    26    27   ar
    24    27    28   ar
    25    28    31    1
    26    31    32    1
    27    31    33    1
    28    31    34    1
    29    28    29   ar
    30    29    30   ar
    31     4     5    1
    32     5     6    1
    33     6     7    1
    34    18    13   ar
    35     6     1    1
    36    23    19   ar
    37    30    25   ar
