@<TRIPOS>MOLECULE
*****
 24 27 0 0 0
SMALL
GASTEIGER

@<TRIPOS>ATOM
      1 N         139.9971  141.6068  164.3326 N.am    1  UNL1       -0.3011
      2 C         138.7963  142.1101  163.5876 C.2     1  UNL1        0.2653
      3 O         137.6028  142.6153  164.3426 O.2     1  UNL1       -0.2684
      4 H         140.7805  141.2752  163.8371 H       1  UNL1        0.1497
      5 C         139.9457  141.4270  166.5596 C.3     1  UNL1        0.0896
      6 N         140.0113  141.6108  167.3325 N.3     1  UNL1       -0.2740
      7 C         139.5976  140.3816  168.0861 C.3     1  UNL1        0.0591
      8 C         139.6047  140.3835  169.5861 C.3     1  UNL1        0.0161
      9 C         140.0255  141.6147  170.3325 C.3     1  UNL1        0.0028
     10 C         140.4392  142.8439  169.5789 C.3     1  UNL1        0.0161
     11 C         140.4321  142.8420  168.0790 C.3     1  UNL1        0.0591
     12 C         140.4250  142.8400  166.5790 C.3     1  UNL1        0.0356
     13 C         140.0042  141.6088  165.8326 C.3     1  UNL1        0.0746
     14 C         139.5905  140.3796  166.5861 C.3     1  UNL1        0.0356
     15 C         138.7892  142.1081  162.0876 C.ar    1  UNL1        0.1554
     16 N         138.2220  141.0320  161.2101 N.ar    1  UNL1       -0.1646
     17 N         138.4304  141.4407  159.7820 N.ar    1  UNL1       -0.2487
     18 C         138.0156  140.6581  158.5714 C.3     1  UNL1        0.1537
     19 C         139.1263  142.7695  159.7769 C.ar    1  UNL1        0.0795
     20 C         139.5867  143.6571  158.6589 C.ar    1  UNL1        0.0188
     21 C         140.2690  144.9572  158.9658 C.ar    1  UNL1        0.0015
     22 C         140.4908  145.3697  160.3908 C.ar    1  UNL1        0.0001
     23 C         140.0303  144.4821  161.5089 C.ar    1  UNL1        0.0032
     24 C         139.3481  143.1820  161.2019 C.ar    1  UNL1        0.0411
@<TRIPOS>BOND
     1     5     6    1
     2     6     7    1
     3     7     8    1
     4     8     9    1
     5     9    10    1
     6    10    11    1
     7    11    12    1
     8    12    13    1
     9    13     1    1
    10     1     2   am
    11     2     3    2
    12     2    15    1
    13    15    16   ar
    14    16    17   ar
    15    17    18    1
    16    17    19   ar
    17    19    20   ar
    18    20    21   ar
    19    21    22   ar
    20    22    23   ar
    21    23    24   ar
    22    13    14    1
    23    11     6    1
    24    24    15   ar
    25    14     7    1
    26    24    19   ar
    27     1     4    1
@<TRIPOS>MOLECULE
*****
 24 27 0 0 0
SMALL
GASTEIGER

@<TRIPOS>ATOM
      1 N         141.6018  142.9125  163.6220 N.am    1  UNL1       -0.3011
      2 C         141.7486  144.2663  162.9926 C.2     1  UNL1        0.2653
      3 O         141.9594  145.4753  163.8550 O.2     1  UNL1       -0.2684
      4 H         141.4634  142.1190  163.0561 H       1  UNL1        0.1497
      5 C         141.8851  142.6573  165.8241 C.3     1  UNL1        0.0896
      6 N         141.7299  142.6235  166.6052 N.3     1  UNL1       -0.2740
      7 C         143.0292  142.2773  167.2701 C.3     1  UNL1        0.0591
      8 C         143.0933  142.1328  168.7618 C.3     1  UNL1        0.0161
      9 C         141.8582  142.3345  169.5886 C.3     1  UNL1        0.0028
     10 C         140.5589  142.6807  168.9237 C.3     1  UNL1        0.0161
     11 C         140.4947  142.8253  167.4321 C.3     1  UNL1        0.0591
     12 C         140.4307  142.9698  165.9405 C.3     1  UNL1        0.0356
     13 C         141.6659  142.7680  165.1137 C.3     1  UNL1        0.0746
     14 C         142.9651  142.4218  165.7784 C.3     1  UNL1        0.0356
     15 C         141.6845  144.4108  161.5010 C.ar    1  UNL1        0.1554
     16 N         140.7136  145.2629  160.7386 N.ar    1  UNL1       -0.1646
     17 N         141.0092  145.1073  159.2763 N.ar    1  UNL1       -0.2487
     18 C         140.2793  145.7816  158.1526 C.3     1  UNL1        0.1537
     19 C         142.1628  144.1590  159.1349 C.ar    1  UNL1        0.0795
     20 C         142.8870  143.6318  157.9318 C.ar    1  UNL1        0.0188
     21 C         144.0287  142.6742  158.1036 C.ar    1  UNL1        0.0015
     22 C         144.4461  142.2438  159.4786 C.ar    1  UNL1        0.0001
     23 C         143.7218  142.7709  160.6817 C.ar    1  UNL1        0.0032
     24 C         142.5801  143.7285  160.5098 C.ar    1  UNL1        0.0411
@<TRIPOS>BOND
     1     5     6    1
     2     6     7    1
     3     7     8    1
     4     8     9    1
     5     9    10    1
     6    10    11    1
     7    11    12    1
     8    12    13    1
     9    13     1    1
    10     1     2   am
    11     2     3    2
    12     2    15    1
    13    15    16   ar
    14    16    17   ar
    15    17    18    1
    16    17    19   ar
    17    19    20   ar
    18    20    21   ar
    19    21    22   ar
    20    22    23   ar
    21    23    24   ar
    22    13    14    1
    23    11     6    1
    24    24    15   ar
    25    14     7    1
    26    24    19   ar
    27     1     4    1
@<TRIPOS>MOLECULE
*****
 24 27 0 0 0
SMALL
GASTEIGER

@<TRIPOS>ATOM
      1 N         141.3303  141.6361  164.7724 N.am    1  UNL1       -0.3011
      2 C         140.8051  140.2762  164.4187 C.2     1  UNL1        0.2653
      3 O         140.5051  139.2831  165.5020 O.2     1  UNL1       -0.2684
      4 H         141.5272  142.2880  164.0613 H       1  UNL1        0.1497
      5 C         141.8468  142.1182  166.8926 C.3     1  UNL1        0.0896
      6 N         141.7806  142.3693  167.6462 N.3     1  UNL1       -0.2740
      7 C         143.1201  142.1346  168.2791 C.3     1  UNL1        0.0591
      8 C         143.3454  142.5012  169.7161 C.3     1  UNL1        0.0161
      9 C         142.2310  143.1026  170.5202 C.3     1  UNL1        0.0028
     10 C         140.8915  143.3373  169.8873 C.3     1  UNL1        0.0161
     11 C         140.6663  142.9707  168.4504 C.3     1  UNL1        0.0591
     12 C         140.4411  142.6041  167.0134 C.3     1  UNL1        0.0356
     13 C         141.5555  142.0028  166.2093 C.3     1  UNL1        0.0746
     14 C         142.8950  141.7680  166.8421 C.3     1  UNL1        0.0356
     15 C         140.5799  139.9096  162.9817 C.ar    1  UNL1        0.1554
     16 N         139.3504  140.2111  162.1771 N.ar    1  UNL1       -0.1646
     17 N         139.5554  139.6649  160.7952 N.ar    1  UNL1       -0.2487
     18 C         138.5762  139.7439  159.6617 C.3     1  UNL1        0.1537
     19 C         140.9116  139.0259  160.7457 C.ar    1  UNL1        0.0795
     20 C         141.6517  138.3259  159.6448 C.ar    1  UNL1        0.0188
     21 C         143.0250  137.7770  159.8952 C.ar    1  UNL1        0.0015
     22 C         143.6582  137.9283  161.2466 C.ar    1  UNL1        0.0001
     23 C         142.9181  138.6283  162.3475 C.ar    1  UNL1        0.0032
     24 C         141.5448  139.1771  162.0971 C.ar    1  UNL1        0.0411
@<TRIPOS>BOND
     1     5     6    1
     2     6     7    1
     3     7     8    1
     4     8     9    1
     5     9    10    1
     6    10    11    1
     7    11    12    1
     8    12    13    1
     9    13     1    1
    10     1     2   am
    11     2     3    2
    12     2    15    1
    13    15    16   ar
    14    16    17   ar
    15    17    18    1
    16    17    19   ar
    17    19    20   ar
    18    20    21   ar
    19    21    22   ar
    20    22    23   ar
    21    23    24   ar
    22    13    14    1
    23    11     6    1
    24    24    15   ar
    25    14     7    1
    26    24    19   ar
    27     1     4    1
@<TRIPOS>MOLECULE
*****
 24 27 0 0 0
SMALL
GASTEIGER

@<TRIPOS>ATOM
      1 N         141.0818  139.8763  164.6931 N.am    1  UNL1       -0.3011
      2 C         140.8680  138.5931  163.9461 C.2     1  UNL1        0.2653
      3 O         140.5256  137.3385  164.6934 O.2     1  UNL1       -0.2684
      4 H         141.3066  140.6998  164.2026 H       1  UNL1        0.1497
      5 C         141.0780  139.8741  166.9279 C.3     1  UNL1        0.0896
      6 N         140.8247  139.9330  167.6814 N.3     1  UNL1       -0.2740
      7 C         142.0196  139.6493  168.5426 C.3     1  UNL1        0.0591
      8 C         141.8911  139.6776  170.0368 C.3     1  UNL1        0.0161
      9 C         140.5676  139.9897  170.6699 C.3     1  UNL1        0.0028
     10 C         139.3726  140.2735  169.8088 C.3     1  UNL1        0.0161
     11 C         139.5011  140.2451  168.3146 C.3     1  UNL1        0.0591
     12 C         139.6297  140.2168  166.8204 C.3     1  UNL1        0.0356
     13 C         140.9532  139.9047  166.1873 C.3     1  UNL1        0.0746
     14 C         142.1482  139.6209  167.0484 C.3     1  UNL1        0.0356
     15 C         140.9966  138.5647  162.4519 C.ar    1  UNL1        0.1554
     16 N         142.1505  138.0011  161.6768 N.ar    1  UNL1       -0.1646
     17 N         141.8609  138.1831  160.2164 N.ar    1  UNL1       -0.2487
     18 C         142.7484  137.7627  159.0825 C.3     1  UNL1        0.1537
     19 C         140.5280  138.8591  160.0888 C.ar    1  UNL1        0.0795
     20 C         139.7317  139.2904  158.8931 C.ar    1  UNL1        0.0188
     21 C         138.4012  139.9576  159.0790 C.ar    1  UNL1        0.0015
     22 C         137.8670  140.1935  160.4607 C.ar    1  UNL1        0.0001
     23 C         138.6633  139.7622  161.6564 C.ar    1  UNL1        0.0032
     24 C         139.9938  139.0950  161.4705 C.ar    1  UNL1        0.0411
@<TRIPOS>BOND
     1     5     6    1
     2     6     7    1
     3     7     8    1
     4     8     9    1
     5     9    10    1
     6    10    11    1
     7    11    12    1
     8    12    13    1
     9    13     1    1
    10     1     2   am
    11     2     3    2
    12     2    15    1
    13    15    16   ar
    14    16    17   ar
    15    17    18    1
    16    17    19   ar
    17    19    20   ar
    18    20    21   ar
    19    21    22   ar
    20    22    23   ar
    21    23    24   ar
    22    13    14    1
    23    11     6    1
    24    24    15   ar
    25    14     7    1
    26    24    19   ar
    27     1     4    1
@<TRIPOS>MOLECULE
*****
 24 27 0 0 0
SMALL
GASTEIGER

@<TRIPOS>ATOM
      1 N         140.9643  140.7929  164.8139 N.am    1  UNL1       -0.3011
      2 C         142.2990  140.1947  164.4808 C.2     1  UNL1        0.2653
      3 O         143.3078  139.9610  165.5660 O.2     1  UNL1       -0.2684
      4 H         140.3021  140.9463  164.1017 H       1  UNL1        0.1497
      5 C         140.4103  141.1565  166.9482 C.3     1  UNL1        0.0896
      6 N         140.3128  141.5216  167.6501 N.3     1  UNL1       -0.2740
      7 C         139.6756  140.5107  168.5567 C.3     1  UNL1        0.0591
      8 C         139.3498  140.8750  169.9749 C.3     1  UNL1        0.0161
      9 C         139.6612  142.2503  170.4864 C.3     1  UNL1        0.0028
     10 C         140.2984  143.2612  169.5797 C.3     1  UNL1        0.0161
     11 C         140.6242  142.8969  168.1616 C.3     1  UNL1        0.0591
     12 C         140.9500  142.5326  166.7435 C.3     1  UNL1        0.0356
     13 C         140.6385  141.1573  166.2320 C.3     1  UNL1        0.0746
     14 C         140.0013  140.1463  167.1386 C.3     1  UNL1        0.0356
     15 C         142.6248  139.8303  163.0627 C.ar    1  UNL1        0.1554
     16 N         142.5414  138.4577  162.4637 N.ar    1  UNL1       -0.1646
     17 N         142.9562  138.5537  161.0254 N.ar    1  UNL1       -0.2487
     18 C         143.0200  137.4172  160.0484 C.3     1  UNL1        0.1537
     19 C         143.2960  139.9856  160.7355 C.ar    1  UNL1        0.0795
     20 C         143.7655  140.6730  159.4877 C.ar    1  UNL1        0.0188
     21 C         144.0301  142.1494  159.4991 C.ar    1  UNL1        0.0015
     22 C         143.8253  142.9384  160.7582 C.ar    1  UNL1        0.0001
     23 C         143.3559  142.2511  162.0060 C.ar    1  UNL1        0.0032
     24 C         143.0912  140.7747  161.9947 C.ar    1  UNL1        0.0411
@<TRIPOS>BOND
     1     5     6    1
     2     6     7    1
     3     7     8    1
     4     8     9    1
     5     9    10    1
     6    10    11    1
     7    11    12    1
     8    12    13    1
     9    13     1    1
    10     1     2   am
    11     2     3    2
    12     2    15    1
    13    15    16   ar
    14    16    17   ar
    15    17    18    1
    16    17    19   ar
    17    19    20   ar
    18    20    21   ar
    19    21    22   ar
    20    22    23   ar
    21    23    24   ar
    22    13    14    1
    23    11     6    1
    24    24    15   ar
    25    14     7    1
    26    24    19   ar
    27     1     4    1
@<TRIPOS>MOLECULE
*****
 24 27 0 0 0
SMALL
GASTEIGER

@<TRIPOS>ATOM
      1 N         141.6465  142.0686  165.2929 N.am    1  UNL1       -0.3011
      2 C         142.7335  142.8750  164.6460 C.2     1  UNL1        0.2653
      3 O         143.8727  143.3961  165.4709 O.2     1  UNL1       -0.2684
      4 H         140.8987  141.7266  164.7514 H       1  UNL1        0.1497
      5 C         141.8479  141.5009  167.4450 C.3     1  UNL1        0.0896
      6 N         141.7511  141.4983  168.2362 N.3     1  UNL1       -0.2740
      7 C         142.6102  140.3831  168.7540 C.3     1  UNL1        0.0591
      8 C         142.6626  140.0979  170.2257 C.3     1  UNL1        0.0161
      9 C         141.8558  140.9279  171.1797 C.3     1  UNL1        0.0028
     10 C         140.9967  142.0432  170.6619 C.3     1  UNL1        0.0161
     11 C         140.9443  142.3284  169.1902 C.3     1  UNL1        0.0591
     12 C         140.8920  142.6136  167.7185 C.3     1  UNL1        0.0356
     13 C         141.6988  141.7835  166.7646 C.3     1  UNL1        0.0746
     14 C         142.5579  140.6682  167.2823 C.3     1  UNL1        0.0356
     15 C         142.6812  143.1602  163.1743 C.ar    1  UNL1        0.1554
     16 N         143.5559  142.5412  162.1247 N.ar    1  UNL1       -0.1646
     17 N         143.1602  143.1129  160.7955 N.ar    1  UNL1       -0.2487
     18 C         143.7757  142.7721  159.4707 C.3     1  UNL1        0.1537
     19 C         142.0410  144.0852  161.0237 C.ar    1  UNL1        0.0795
     20 C         141.2533  144.9476  160.0827 C.ar    1  UNL1        0.0188
     21 C         140.1695  145.8394  160.6119 C.ar    1  UNL1        0.0015
     22 C         139.8734  145.8686  162.0821 C.ar    1  UNL1        0.0001
     23 C         140.6611  145.0061  163.0231 C.ar    1  UNL1        0.0032
     24 C         141.7450  144.1144  162.4939 C.ar    1  UNL1        0.0411
@<TRIPOS>BOND
     1     5     6    1
     2     6     7    1
     3     7     8    1
     4     8     9    1
     5     9    10    1
     6    10    11    1
     7    11    12    1
     8    12    13    1
     9    13     1    1
    10     1     2   am
    11     2     3    2
    12     2    15    1
    13    15    16   ar
    14    16    17   ar
    15    17    18    1
    16    17    19   ar
    17    19    20   ar
    18    20    21   ar
    19    21    22   ar
    20    22    23   ar
    21    23    24   ar
    22    13    14    1
    23    11     6    1
    24    24    15   ar
    25    14     7    1
    26    24    19   ar
    27     1     4    1
@<TRIPOS>MOLECULE
*****
 24 27 0 0 0
SMALL
GASTEIGER

@<TRIPOS>ATOM
      1 N         138.4495  139.2164  159.2969 N.am    1  UNL1       -0.3011
      2 C         138.1309  140.6724  159.1268 C.2     1  UNL1        0.2653
      3 O         138.4243  141.6387  160.2358 O.2     1  UNL1       -0.2684
      4 H         138.2570  138.5821  158.5690 H       1  UNL1        0.1497
      5 C         139.5331  138.5007  161.1157 C.3     1  UNL1        0.0896
      6 N         139.6733  138.2376  161.8550 N.3     1  UNL1       -0.2740
      7 C         141.1598  138.0653  161.9574 C.3     1  UNL1        0.0591
      8 C         141.7718  137.5758  163.2365 C.3     1  UNL1        0.0161
      9 C         140.8972  137.2587  164.4131 C.3     1  UNL1        0.0028
     10 C         139.4106  137.4310  164.3106 C.3     1  UNL1        0.0161
     11 C         138.7987  137.9204  163.0317 C.3     1  UNL1        0.0591
     12 C         138.1868  138.4099  161.7526 C.3     1  UNL1        0.0356
     13 C         139.0614  138.7270  160.5760 C.3     1  UNL1        0.0746
     14 C         140.5479  138.5547  160.6783 C.3     1  UNL1        0.0356
     15 C         137.5190  141.1618  157.8477 C.ar    1  UNL1        0.1554
     16 N         136.3671  140.5307  157.1234 N.ar    1  UNL1       -0.1646
     17 N         136.0878  141.3472  155.8964 N.ar    1  UNL1       -0.2487
     18 C         135.0171  141.0757  154.8816 C.3     1  UNL1        0.1537
     19 C         137.0672  142.4828  155.8625 C.ar    1  UNL1        0.0795
     20 C         137.2678  143.6064  154.8892 C.ar    1  UNL1        0.0188
     21 C         138.3530  144.6154  155.1219 C.ar    1  UNL1        0.0015
     22 C         139.2376  144.5008  156.3279 C.ar    1  UNL1        0.0001
     23 C         139.0370  143.3772  157.3012 C.ar    1  UNL1        0.0032
     24 C         137.9518  142.3682  157.0684 C.ar    1  UNL1        0.0411
@<TRIPOS>BOND
     1     5     6    1
     2     6     7    1
     3     7     8    1
     4     8     9    1
     5     9    10    1
     6    10    11    1
     7    11    12    1
     8    12    13    1
     9    13     1    1
    10     1     2   am
    11     2     3    2
    12     2    15    1
    13    15    16   ar
    14    16    17   ar
    15    17    18    1
    16    17    19   ar
    17    19    20   ar
    18    20    21   ar
    19    21    22   ar
    20    22    23   ar
    21    23    24   ar
    22    13    14    1
    23    11     6    1
    24    24    15   ar
    25    14     7    1
    26    24    19   ar
    27     1     4    1
@<TRIPOS>MOLECULE
*****
 24 27 0 0 0
SMALL
GASTEIGER

@<TRIPOS>ATOM
      1 N         139.6496  143.3092  162.8422 N.am    1  UNL1       -0.3011
      2 C         140.7556  142.4913  163.4407 C.2     1  UNL1        0.2653
      3 O         141.9031  142.0420  162.5857 O.2     1  UNL1       -0.2684
      4 H         138.8964  143.6041  163.4033 H       1  UNL1        0.1497
      5 C         139.7974  144.0230  160.7296 C.3     1  UNL1        0.0896
      6 N         139.7331  144.0461  159.9354 N.3     1  UNL1       -0.2740
      7 C         140.3318  145.3540  159.5101 C.3     1  UNL1        0.0591
      8 C         140.3736  145.7226  158.0567 C.3     1  UNL1        0.0161
      9 C         139.8167  144.7830  157.0285 C.3     1  UNL1        0.0028
     10 C         139.2181  143.4751  157.4537 C.3     1  UNL1        0.0161
     11 C         139.1763  143.1065  158.9071 C.3     1  UNL1        0.0591
     12 C         139.1345  142.7381  160.3605 C.3     1  UNL1        0.0356
     13 C         139.6914  143.6776  161.3887 C.3     1  UNL1        0.0746
     14 C         140.2900  144.9856  160.9636 C.3     1  UNL1        0.0356
     15 C         140.7138  142.1228  164.8941 C.ar    1  UNL1        0.1554
     16 N         141.5263  142.7520  165.9869 N.ar    1  UNL1       -0.1646
     17 N         141.1668  142.0785  167.2781 N.ar    1  UNL1       -0.2487
     18 C         141.7411  142.3948  168.6272 C.3     1  UNL1        0.1537
     19 C         140.1322  141.0332  166.9834 C.ar    1  UNL1        0.0795
     20 C         139.4089  140.0599  167.8663 C.ar    1  UNL1        0.0188
     21 C         138.4056  139.1141  167.2758 C.ar    1  UNL1        0.0015
     22 C         138.1257  139.1414  165.8024 C.ar    1  UNL1        0.0001
     23 C         138.8490  140.1147  164.9195 C.ar    1  UNL1        0.0032
     24 C         139.8522  141.0606  165.5100 C.ar    1  UNL1        0.0411
@<TRIPOS>BOND
     1     5     6    1
     2     6     7    1
     3     7     8    1
     4     8     9    1
     5     9    10    1
     6    10    11    1
     7    11    12    1
     8    12    13    1
     9    13     1    1
    10     1     2   am
    11     2     3    2
    12     2    15    1
    13    15    16   ar
    14    16    17   ar
    15    17    18    1
    16    17    19   ar
    17    19    20   ar
    18    20    21   ar
    19    21    22   ar
    20    22    23   ar
    21    23    24   ar
    22    13    14    1
    23    11     6    1
    24    24    15   ar
    25    14     7    1
    26    24    19   ar
    27     1     4    1
@<TRIPOS>MOLECULE
*****
 24 27 0 0 0
SMALL
GASTEIGER

@<TRIPOS>ATOM
      1 N         141.3141  139.5216  161.3173 N.am    1  UNL1       -0.3011
      2 C         141.0783  138.7158  162.5604 C.2     1  UNL1        0.2653
      3 O         140.7982  137.2457  162.4593 O.2     1  UNL1       -0.2684
      4 H         141.4980  140.4865  161.3836 H       1  UNL1        0.1497
      5 C         141.0605  138.5771  159.3078 C.3     1  UNL1        0.0896
      6 N         141.2254  138.1928  158.6291 N.3     1  UNL1       -0.2740
      7 C         139.9387  138.1416  157.8599 C.3     1  UNL1        0.0591
      8 C         139.8942  137.4772  156.5158 C.3     1  UNL1        0.0161
      9 C         141.1366  136.8640  155.9409 C.3     1  UNL1        0.0028
     10 C         142.4233  136.9152  156.7101 C.3     1  UNL1        0.0161
     11 C         142.4678  137.5796  158.0542 C.3     1  UNL1        0.0591
     12 C         142.5121  138.2440  159.3983 C.3     1  UNL1        0.0356
     13 C         141.2698  138.8572  159.9732 C.3     1  UNL1        0.0746
     14 C         139.9830  138.8060  159.2040 C.3     1  UNL1        0.0356
     15 C         141.1227  139.3802  163.9045 C.ar    1  UNL1        0.1554
     16 N         142.1813  140.3280  164.3850 N.ar    1  UNL1       -0.1646
     17 N         141.8290  140.7470  165.7815 N.ar    1  UNL1       -0.2487
     18 C         142.6151  141.6894  166.6441 C.3     1  UNL1        0.1537
     19 C         140.5527  140.0581  166.1641 C.ar    1  UNL1        0.0795
     20 C         139.7316  140.0909  167.4190 C.ar    1  UNL1        0.0188
     21 C         138.4739  139.2790  167.5137 C.ar    1  UNL1        0.0015
     22 C         138.0373  138.4343  166.3536 C.ar    1  UNL1        0.0001
     23 C         138.8584  138.4015  165.0988 C.ar    1  UNL1        0.0032
     24 C         140.1161  139.2134  165.0040 C.ar    1  UNL1        0.0411
@<TRIPOS>BOND
     1     5     6    1
     2     6     7    1
     3     7     8    1
     4     8     9    1
     5     9    10    1
     6    10    11    1
     7    11    12    1
     8    12    13    1
     9    13     1    1
    10     1     2   am
    11     2     3    2
    12     2    15    1
    13    15    16   ar
    14    16    17   ar
    15    17    18    1
    16    17    19   ar
    17    19    20   ar
    18    20    21   ar
    19    21    22   ar
    20    22    23   ar
    21    23    24   ar
    22    13    14    1
    23    11     6    1
    24    24    15   ar
    25    14     7    1
    26    24    19   ar
    27     1     4    1
