@<TRIPOS>MOLECULE
*****
 22 24 0 0 0
SMALL
GASTEIGER

@<TRIPOS>ATOM
      1 C         139.7755  140.0640  167.1580 C.ar    1  UNL1        0.0314
      2 C         138.4933  139.3120  167.3592 C.ar    1  UNL1        0.0006
      3 C         138.0813  138.2559  166.3770 C.ar    1  UNL1       -0.0002
      4 C         138.9514  137.9517  165.1936 C.ar    1  UNL1        0.0001
      5 C         140.2336  138.7037  164.9925 C.ar    1  UNL1        0.0028
      6 C         140.6456  139.7598  165.9747 C.ar    1  UNL1        0.0007
      7 C         140.3667  141.8745  166.8562 C.3     1  UNL1        0.0698
      8 C         140.1876  141.1202  168.1403 C.3     1  UNL1        0.2316
      9 N         139.8653  139.9990  169.0832 N.2     1  UNL1       -0.0639
     10 C         140.0173  140.1960  170.5624 C.2     1  UNL1        0.2910
     11 N         139.6950  139.0748  171.5054 N.pl3   1  UNL1       -0.2501
     12 C         140.4916  141.5141  171.0987 C.3     1  UNL1        0.1282
     13 C         140.8139  142.6353  170.1557 C.3     1  UNL1        0.0744
     14 S         140.6618  142.4383  168.6765 S.3     1  UNL1       -0.0895
     15 H         139.3838  138.2097  171.1534 H       1  UNL1        0.2881
     16 H         139.7948  139.2041  172.4763 H       1  UNL1        0.2881
     17 C         141.1038  138.3995  163.8091 C.ar    1  UNL1        0.0384
     18 C         140.4992  137.8291  162.5605 C.ar    1  UNL1        0.1022
     19 N         141.3694  137.5250  161.3772 N.ar    1  UNL1       -0.2224
     20 C         142.8441  137.7911  161.4425 C.ar    1  UNL1        0.1989
     21 N         143.4487  138.3615  162.6911 N.ar    1  UNL1       -0.2224
     22 C         142.5785  138.6657  163.8745 C.ar    1  UNL1        0.1022
@<TRIPOS>BOND
     1     7     8    1
     2     8     1    1
     3     1     2   ar
     4     2     3   ar
     5     3     4   ar
     6     4     5   ar
     7     5    17    1
     8    17    18   ar
     9    18    19   ar
    10    19    20   ar
    11    20    21   ar
    12    21    22   ar
    13     5     6   ar
    14     8     9    1
    15     9    10    2
    16    10    11    1
    17    10    12    1
    18    12    13    1
    19    13    14    1
    20    14     8    1
    21     6     1   ar
    22    22    17   ar
    23    11    15    1
    24    11    16    1
@<TRIPOS>MOLECULE
*****
 22 24 0 0 0
SMALL
GASTEIGER

@<TRIPOS>ATOM
      1 C         140.1418  140.6385  167.2273 C.ar    1  UNL1        0.0314
      2 C         139.1591  139.5289  166.9976 C.ar    1  UNL1        0.0006
      3 C         138.1938  139.6070  165.8521 C.ar    1  UNL1       -0.0002
      4 C         138.2114  140.7949  164.9363 C.ar    1  UNL1        0.0001
      5 C         139.1941  141.9045  165.1659 C.ar    1  UNL1        0.0028
      6 C         140.1593  141.8264  166.3114 C.ar    1  UNL1        0.0007
      7 C         141.7993  139.6660  167.3875 C.3     1  UNL1        0.0698
      8 C         141.1071  140.5604  168.3728 C.3     1  UNL1        0.2316
      9 N         140.0797  141.4820  168.9603 N.2     1  UNL1       -0.0639
     10 C         140.2579  142.0148  170.3510 C.2     1  UNL1        0.2910
     11 N         139.2305  142.9364  170.9385 N.pl3   1  UNL1       -0.2501
     12 C         141.4635  141.6261  171.1544 C.3     1  UNL1        0.1282
     13 C         142.4909  140.7045  170.5669 C.3     1  UNL1        0.0744
     14 S         142.3127  140.1717  169.1761 S.3     1  UNL1       -0.0895
     15 H         138.4392  143.1916  170.4113 H       1  UNL1        0.2881
     16 H         139.3474  143.2862  171.8514 H       1  UNL1        0.2881
     17 C         139.2117  143.0923  164.2501 C.ar    1  UNL1        0.0384
     18 C         140.4493  143.9318  164.1342 C.ar    1  UNL1        0.1022
     19 N         140.4668  145.1196  163.2183 N.ar    1  UNL1       -0.2224
     20 C         139.2467  145.4680  162.4184 C.ar    1  UNL1        0.1989
     21 N         138.0091  144.6285  162.5343 N.ar    1  UNL1       -0.2224
     22 C         137.9916  143.4407  163.4502 C.ar    1  UNL1        0.1022
@<TRIPOS>BOND
     1     7     8    1
     2     8     1    1
     3     1     2   ar
     4     2     3   ar
     5     3     4   ar
     6     4     5   ar
     7     5    17    1
     8    17    18   ar
     9    18    19   ar
    10    19    20   ar
    11    20    21   ar
    12    21    22   ar
    13     5     6   ar
    14     8     9    1
    15     9    10    2
    16    10    11    1
    17    10    12    1
    18    12    13    1
    19    13    14    1
    20    14     8    1
    21     6     1   ar
    22    22    17   ar
    23    11    15    1
    24    11    16    1
@<TRIPOS>MOLECULE
*****
 22 24 0 0 0
SMALL
GASTEIGER

@<TRIPOS>ATOM
      1 C         141.7259  142.2433  166.6032 C.ar    1  UNL1        0.0314
      2 C         143.2149  142.2909  166.7776 C.ar    1  UNL1        0.0006
      3 C         144.0648  143.0126  165.7743 C.ar    1  UNL1       -0.0002
      4 C         143.4257  143.6867  164.5965 C.ar    1  UNL1        0.0001
      5 C         141.9367  143.6391  164.4221 C.ar    1  UNL1        0.0028
      6 C         141.0868  142.9174  165.4254 C.ar    1  UNL1        0.0007
      7 C         141.0910  140.4224  166.6088 C.3     1  UNL1        0.0698
      8 C         140.8759  141.5215  167.6066 C.3     1  UNL1        0.2316
      9 N         140.9560  142.8713  168.2559 N.2     1  UNL1       -0.0639
     10 C         140.2609  143.1177  169.5620 C.2     1  UNL1        0.2910
     11 N         140.3410  144.4675  170.2114 N.pl3   1  UNL1       -0.2501
     12 C         139.4856  142.0143  170.2189 C.3     1  UNL1        0.1282
     13 C         139.4055  140.6645  169.5695 C.3     1  UNL1        0.0744
     14 S         140.1006  140.4181  168.2634 S.3     1  UNL1       -0.0895
     15 H         140.8498  145.1918  169.7803 H       1  UNL1        0.2881
     16 H         139.8847  144.6292  171.0687 H       1  UNL1        0.2881
     17 C         141.2975  144.3132  163.2444 C.ar    1  UNL1        0.0384
     18 C         142.0769  144.5079  161.9776 C.ar    1  UNL1        0.1022
     19 N         141.4378  145.1820  160.7999 N.ar    1  UNL1       -0.2224
     20 C         140.0193  145.6614  160.8889 C.ar    1  UNL1        0.1989
     21 N         139.2399  145.4667  162.1556 N.ar    1  UNL1       -0.2224
     22 C         139.8790  144.7926  163.3333 C.ar    1  UNL1        0.1022
@<TRIPOS>BOND
     1     7     8    1
     2     8     1    1
     3     1     2   ar
     4     2     3   ar
     5     3     4   ar
     6     4     5   ar
     7     5    17    1
     8    17    18   ar
     9    18    19   ar
    10    19    20   ar
    11    20    21   ar
    12    21    22   ar
    13     5     6   ar
    14     8     9    1
    15     9    10    2
    16    10    11    1
    17    10    12    1
    18    12    13    1
    19    13    14    1
    20    14     8    1
    21     6     1   ar
    22    22    17   ar
    23    11    15    1
    24    11    16    1
@<TRIPOS>MOLECULE
*****
 22 24 0 0 0
SMALL
GASTEIGER

@<TRIPOS>ATOM
      1 C         141.0420  138.7910  165.1980 C.ar    1  UNL1        0.0314
      2 C         142.4231  138.2228  165.3380 C.ar    1  UNL1        0.0006
      3 C         143.2663  138.5852  166.5244 C.ar    1  UNL1       -0.0002
      4 C         142.7285  139.5157  167.5708 C.ar    1  UNL1        0.0001
      5 C         141.3473  140.0839  167.4307 C.ar    1  UNL1        0.0028
      6 C         140.5041  139.7215  166.2443 C.ar    1  UNL1        0.0007
      7 C         141.1840  137.2980  163.9858 C.3     1  UNL1        0.0698
      8 C         140.1987  138.4287  164.0115 C.3     1  UNL1        0.2316
      9 N         139.5062  139.6852  164.4493 N.2     1  UNL1       -0.0639
     10 C         138.3127  140.1867  163.6918 C.2     1  UNL1        0.2910
     11 N         137.6202  141.4433  164.1296 N.pl3   1  UNL1       -0.2501
     12 C         137.8116  139.4318  162.4964 C.3     1  UNL1        0.1282
     13 C         138.5040  138.1752  162.0586 C.3     1  UNL1        0.0744
     14 S         139.6976  137.6737  162.8161 S.3     1  UNL1       -0.0895
     15 H         137.9491  141.9388  164.9141 H       1  UNL1        0.2881
     16 H         136.8368  141.7724  163.6324 H       1  UNL1        0.2881
     17 C         140.8095  141.0144  168.4770 C.ar    1  UNL1        0.0384
     18 C         140.7180  142.4852  168.1972 C.ar    1  UNL1        0.1022
     19 N         140.1801  143.4157  169.2435 N.ar    1  UNL1       -0.2224
     20 C         139.7337  142.8755  170.5697 C.ar    1  UNL1        0.1989
     21 N         139.8252  141.4047  170.8495 N.ar    1  UNL1       -0.2224
     22 C         140.3631  140.4742  169.8032 C.ar    1  UNL1        0.1022
@<TRIPOS>BOND
     1     7     8    1
     2     8     1    1
     3     1     2   ar
     4     2     3   ar
     5     3     4   ar
     6     4     5   ar
     7     5    17    1
     8    17    18   ar
     9    18    19   ar
    10    19    20   ar
    11    20    21   ar
    12    21    22   ar
    13     5     6   ar
    14     8     9    1
    15     9    10    2
    16    10    11    1
    17    10    12    1
    18    12    13    1
    19    13    14    1
    20    14     8    1
    21     6     1   ar
    22    22    17   ar
    23    11    15    1
    24    11    16    1
@<TRIPOS>MOLECULE
*****
 22 24 0 0 0
SMALL
GASTEIGER

@<TRIPOS>ATOM
      1 C         139.6663  138.8601  165.2673 C.ar    1  UNL1        0.0314
      2 C         138.3190  138.6277  165.8841 C.ar    1  UNL1        0.0006
      3 C         138.0578  139.0545  167.2982 C.ar    1  UNL1       -0.0002
      4 C         139.1440  139.7136  168.0954 C.ar    1  UNL1        0.0001
      5 C         140.4914  139.9460  167.4786 C.ar    1  UNL1        0.0028
      6 C         140.7526  139.5193  166.0645 C.ar    1  UNL1        0.0007
      7 C         140.9571  137.6096  164.5682 C.3     1  UNL1        0.0698
      8 C         139.9276  138.4334  163.8531 C.3     1  UNL1        0.2316
      9 N         138.8072  139.4054  163.6292 N.2     1  UNL1       -0.0639
     10 C         138.3057  139.6646  162.2395 C.2     1  UNL1        0.2910
     11 N         137.1853  140.6366  162.0156 N.pl3   1  UNL1       -0.2501
     12 C         138.9244  138.9518  161.0737 C.3     1  UNL1        0.1282
     13 C         140.0447  137.9798  161.2977 C.3     1  UNL1        0.0744
     14 S         140.5463  137.7206  162.6873 S.3     1  UNL1       -0.0895
     15 H         136.7792  141.1044  162.7807 H       1  UNL1        0.2881
     16 H         136.8562  140.8067  161.1035 H       1  UNL1        0.2881
     17 C         141.5777  140.6052  168.2759 C.ar    1  UNL1        0.0384
     18 C         142.0235  141.9951  167.9304 C.ar    1  UNL1        0.1022
     19 N         143.1097  142.6542  168.7276 N.ar    1  UNL1       -0.2224
     20 C         143.7501  141.9235  169.8704 C.ar    1  UNL1        0.1989
     21 N         143.3043  140.5336  170.2159 N.ar    1  UNL1       -0.2224
     22 C         142.2180  139.8745  169.4186 C.ar    1  UNL1        0.1022
@<TRIPOS>BOND
     1     7     8    1
     2     8     1    1
     3     1     2   ar
     4     2     3   ar
     5     3     4   ar
     6     4     5   ar
     7     5    17    1
     8    17    18   ar
     9    18    19   ar
    10    19    20   ar
    11    20    21   ar
    12    21    22   ar
    13     5     6   ar
    14     8     9    1
    15     9    10    2
    16    10    11    1
    17    10    12    1
    18    12    13    1
    19    13    14    1
    20    14     8    1
    21     6     1   ar
    22    22    17   ar
    23    11    15    1
    24    11    16    1
@<TRIPOS>MOLECULE
*****
 22 24 0 0 0
SMALL
GASTEIGER

@<TRIPOS>ATOM
      1 C         140.4206  142.5676  166.2601 C.ar    1  UNL1        0.0314
      2 C         139.6751  143.8657  166.1653 C.ar    1  UNL1        0.0006
      3 C         138.5561  144.0174  165.1781 C.ar    1  UNL1       -0.0002
      4 C         138.1826  142.8711  164.2857 C.ar    1  UNL1        0.0001
      5 C         138.9281  141.5730  164.3805 C.ar    1  UNL1        0.0028
      6 C         140.0471  141.4212  165.3677 C.ar    1  UNL1        0.0007
      7 C         142.1848  141.8240  166.0294 C.3     1  UNL1        0.0698
      8 C         141.5397  142.4157  167.2474 C.3     1  UNL1        0.2316
      9 N         140.5059  143.0603  168.1226 N.2     1  UNL1       -0.0639
     10 C         140.8152  143.3474  169.5619 C.2     1  UNL1        0.2910
     11 N         139.7813  143.9920  170.4371 N.pl3   1  UNL1       -0.2501
     12 C         142.1583  142.9901  170.1262 C.3     1  UNL1        0.1282
     13 C         143.1921  142.3456  169.2511 C.3     1  UNL1        0.0744
     14 S         142.8828  142.0584  167.8117 S.3     1  UNL1       -0.0895
     15 H         138.8998  144.2265  170.0668 H       1  UNL1        0.2881
     16 H         139.9844  144.1805  171.3818 H       1  UNL1        0.2881
     17 C         138.5546  140.4266  163.4881 C.ar    1  UNL1        0.0384
     18 C         137.8224  140.6832  162.2044 C.ar    1  UNL1        0.1022
     19 N         137.4489  139.5368  161.3119 N.ar    1  UNL1       -0.2224
     20 C         137.8076  138.1340  161.7032 C.ar    1  UNL1        0.1989
     21 N         138.5398  137.8774  162.9870 N.ar    1  UNL1       -0.2224
     22 C         138.9133  139.0238  163.8794 C.ar    1  UNL1        0.1022
@<TRIPOS>BOND
     1     7     8    1
     2     8     1    1
     3     1     2   ar
     4     2     3   ar
     5     3     4   ar
     6     4     5   ar
     7     5    17    1
     8    17    18   ar
     9    18    19   ar
    10    19    20   ar
    11    20    21   ar
    12    21    22   ar
    13     5     6   ar
    14     8     9    1
    15     9    10    2
    16    10    11    1
    17    10    12    1
    18    12    13    1
    19    13    14    1
    20    14     8    1
    21     6     1   ar
    22    22    17   ar
    23    11    15    1
    24    11    16    1
@<TRIPOS>MOLECULE
*****
 22 24 0 0 0
SMALL
GASTEIGER

@<TRIPOS>ATOM
      1 C         141.4076  143.6236  164.6650 C.ar    1  UNL1        0.0314
      2 C         142.9023  143.5018  164.6940 C.ar    1  UNL1        0.0006
      3 C         143.5722  142.7513  165.8066 C.ar    1  UNL1       -0.0002
      4 C         142.7473  142.1225  166.8902 C.ar    1  UNL1        0.0001
      5 C         141.2526  142.2442  166.8612 C.ar    1  UNL1        0.0028
      6 C         140.5827  142.9947  165.7486 C.ar    1  UNL1        0.0007
      7 C         139.7789  144.6560  164.6709 C.3     1  UNL1        0.0698
      8 C         140.7377  144.3741  163.5523 C.3     1  UNL1        0.2316
      9 N         141.9292  143.8316  162.8202 N.2     1  UNL1       -0.0639
     10 C         142.1178  144.1375  161.3639 C.2     1  UNL1        0.2910
     11 N         143.3093  143.5950  160.6317 N.pl3   1  UNL1       -0.2501
     12 C         141.1149  144.9859  160.6397 C.3     1  UNL1        0.1282
     13 C         139.9234  145.5285  161.3719 C.3     1  UNL1        0.0744
     14 S         139.7348  145.2225  162.8282 S.3     1  UNL1       -0.0895
     15 H         143.9675  143.0382  161.1070 H       1  UNL1        0.2881
     16 H         143.4331  143.7958  159.6759 H       1  UNL1        0.2881
     17 C         140.4277  141.6153  167.9447 C.ar    1  UNL1        0.0384
     18 C         140.2720  142.3077  169.2663 C.ar    1  UNL1        0.1022
     19 N         139.4471  141.6788  170.3498 N.ar    1  UNL1       -0.2224
     20 C         138.7779  140.3577  170.1119 C.ar    1  UNL1        0.1989
     21 N         138.9335  139.6654  168.7904 N.ar    1  UNL1       -0.2224
     22 C         139.7584  140.2942  167.7068 C.ar    1  UNL1        0.1022
@<TRIPOS>BOND
     1     7     8    1
     2     8     1    1
     3     1     2   ar
     4     2     3   ar
     5     3     4   ar
     6     4     5   ar
     7     5    17    1
     8    17    18   ar
     9    18    19   ar
    10    19    20   ar
    11    20    21   ar
    12    21    22   ar
    13     5     6   ar
    14     8     9    1
    15     9    10    2
    16    10    11    1
    17    10    12    1
    18    12    13    1
    19    13    14    1
    20    14     8    1
    21     6     1   ar
    22    22    17   ar
    23    11    15    1
    24    11    16    1
@<TRIPOS>MOLECULE
*****
 22 24 0 0 0
SMALL
GASTEIGER

@<TRIPOS>ATOM
      1 C         139.0893  141.9923  165.0983 C.ar    1  UNL1        0.0314
      2 C         138.3168  140.7796  164.6711 C.ar    1  UNL1        0.0006
      3 C         138.2743  139.5679  165.5542 C.ar    1  UNL1       -0.0002
      4 C         139.0044  139.5689  166.8645 C.ar    1  UNL1        0.0001
      5 C         139.7768  140.7816  167.2918 C.ar    1  UNL1        0.0028
      6 C         139.8193  141.9933  166.4087 C.ar    1  UNL1        0.0007
      7 C         137.6638  142.8995  164.1690 C.3     1  UNL1        0.0698
      8 C         139.1318  143.2041  164.2152 C.3     1  UNL1        0.2316
      9 N         140.5851  143.0879  164.5681 N.2     1  UNL1       -0.0639
     10 C         141.5710  144.0775  164.0219 C.2     1  UNL1        0.2910
     11 N         143.0243  143.9613  164.3749 N.pl3   1  UNL1       -0.2501
     12 C         141.1037  145.1835  163.1228 C.3     1  UNL1        0.1282
     13 C         139.6504  145.2998  162.7699 C.3     1  UNL1        0.0744
     14 S         138.6645  144.3101  163.3161 S.3     1  UNL1       -0.0895
     15 H         143.3310  143.2354  164.9650 H       1  UNL1        0.2881
     16 H         143.6714  144.6109  164.0163 H       1  UNL1        0.2881
     17 C         140.5069  140.7825  168.6022 C.ar    1  UNL1        0.0384
     18 C         142.0045  140.7023  168.6264 C.ar    1  UNL1        0.1022
     19 N         142.7345  140.7032  169.9368 N.ar    1  UNL1       -0.2224
     20 C         141.9669  140.7845  171.2229 C.ar    1  UNL1        0.1989
     21 N         140.4693  140.8648  171.1987 N.ar    1  UNL1       -0.2224
     22 C         139.7393  140.8638  169.8883 C.ar    1  UNL1        0.1022
@<TRIPOS>BOND
     1     7     8    1
     2     8     1    1
     3     1     2   ar
     4     2     3   ar
     5     3     4   ar
     6     4     5   ar
     7     5    17    1
     8    17    18   ar
     9    18    19   ar
    10    19    20   ar
    11    20    21   ar
    12    21    22   ar
    13     5     6   ar
    14     8     9    1
    15     9    10    2
    16    10    11    1
    17    10    12    1
    18    12    13    1
    19    13    14    1
    20    14     8    1
    21     6     1   ar
    22    22    17   ar
    23    11    15    1
    24    11    16    1
@<TRIPOS>MOLECULE
*****
 22 24 0 0 0
SMALL
GASTEIGER

@<TRIPOS>ATOM
      1 C         140.9779  138.7962  165.1802 C.ar    1  UNL1        0.0314
      2 C         142.3587  138.2231  165.3013 C.ar    1  UNL1        0.0006
      3 C         143.2201  138.5838  166.4751 C.ar    1  UNL1       -0.0002
      4 C         142.7006  139.5176  167.5278 C.ar    1  UNL1        0.0001
      5 C         141.3197  140.0907  167.4067 C.ar    1  UNL1        0.0028
      6 C         140.4584  139.7300  166.2329 C.ar    1  UNL1        0.0007
      7 C         139.2383  137.9656  165.1280 C.3     1  UNL1        0.0698
      8 C         140.1164  138.4355  164.0064 C.3     1  UNL1        0.2316
      9 N         141.2937  139.0308  163.2924 N.2     1  UNL1       -0.0639
     10 C         141.3046  139.1021  161.7941 C.2     1  UNL1        0.2910
     11 N         142.4819  139.6973  161.0801 N.pl3   1  UNL1       -0.2501
     12 C         140.1383  138.5782  161.0098 C.3     1  UNL1        0.1282
     13 C         138.9610  137.9830  161.7238 C.3     1  UNL1        0.0744
     14 S         138.9500  137.9117  163.2220 S.3     1  UNL1       -0.0895
     15 H         143.2475  140.0411  161.5949 H       1  UNL1        0.2881
     16 H         142.4891  139.7441  160.0968 H       1  UNL1        0.2881
     17 C         140.8003  141.0245  168.4594 C.ar    1  UNL1        0.0384
     18 C         140.3571  140.4858  169.7873 C.ar    1  UNL1        0.1022
     19 N         139.8376  141.4196  170.8400 N.ar    1  UNL1       -0.2224
     20 C         139.7613  142.8922  170.5648 C.ar    1  UNL1        0.1989
     21 N         140.2045  143.4309  169.2369 N.ar    1  UNL1       -0.2224
     22 C         140.7240  142.4971  168.1842 C.ar    1  UNL1        0.1022
@<TRIPOS>BOND
     1     7     8    1
     2     8     1    1
     3     1     2   ar
     4     2     3   ar
     5     3     4   ar
     6     4     5   ar
     7     5    17    1
     8    17    18   ar
     9    18    19   ar
    10    19    20   ar
    11    20    21   ar
    12    21    22   ar
    13     5     6   ar
    14     8     9    1
    15     9    10    2
    16    10    11    1
    17    10    12    1
    18    12    13    1
    19    13    14    1
    20    14     8    1
    21     6     1   ar
    22    22    17   ar
    23    11    15    1
    24    11    16    1
