@<TRIPOS>MOLECULE
*****
 38 42 0 0 0
SMALL
GASTEIGER

@<TRIPOS>ATOM
      1 C         140.1106  139.6922  159.6218 C.ar    1  UNL1        0.1740
      2 N         140.8023  138.6262  158.8248 N.ar    1  UNL1       -0.2259
      3 C         140.8542  138.7230  157.3288 C.ar    1  UNL1        0.0830
      4 C         140.2143  139.8858  156.6298 C.ar    1  UNL1        0.0199
      5 C         139.5226  140.9517  157.4268 C.ar    1  UNL1        0.0141
      6 C         139.4707  140.8549  158.9227 C.ar    1  UNL1        0.1042
      7 C         143.2003  141.3295  162.5971 C.ar    1  UNL1        0.2089
      8 N         142.5049  140.8751  163.8461 N.ar    1  UNL1       -0.1500
      9 N         141.2433  140.1702  163.4439 N.ar    1  UNL1       -0.2060
     10 C         141.1591  140.1890  161.9464 C.ar    1  UNL1        0.1983
     11 N         140.0587  139.5955  161.1177 N.2     1  UNL1       -0.2011
     12 S         142.3685  140.9054  161.4230 S.2     1  UNL1       -0.0214
     13 C         140.2419  139.5547  164.3757 C.ar    1  UNL1        0.0850
     14 C         139.9062  138.0974  164.2596 C.ar    1  UNL1        0.0201
     15 C         138.9048  137.4819  165.1914 C.ar    1  UNL1        0.0129
     16 C         138.2390  138.3237  166.2393 C.ar    1  UNL1        0.0578
     17 CL        137.2375  137.7082  167.1711 Cl      1  UNL1       -0.0822
     18 C         138.5747  139.7810  166.3554 C.ar    1  UNL1        0.0129
     19 C         139.5761  140.3965  165.4236 C.ar    1  UNL1        0.0201
     20 C         144.4994  142.0767  162.5334 C.2     1  UNL1        0.3673
     21 O         145.7746  141.4000  162.9405 O.2     1  UNL1       -0.2425
     22 O         144.5232  143.5008  162.0626 O.3     1  UNL1       -0.4440
     23 C         143.8105  144.7716  164.2137 C.3     1  UNL1        0.0513
     24 C         143.6670  144.5292  162.7404 C.3     1  UNL1        0.2090
     25 C         141.5460  137.6571  156.5318 C.ar    1  UNL1        0.0177
     26 C         140.7480  136.7447  155.6480 C.ar    1  UNL1        0.0015
     27 C         141.4398  135.6788  154.8510 C.ar    1  UNL1        0.0000
     28 C         142.9294  135.5251  154.9377 C.ar    1  UNL1        0.0000
     29 C         143.7272  136.4375  155.8215 C.ar    1  UNL1        0.0000
     30 C         143.0356  137.5035  156.6186 C.ar    1  UNL1        0.0015
     31 C         138.8827  142.1145  156.7278 C.ar    1  UNL1        0.0008
     32 C         137.4358  142.0511  156.3373 C.ar    1  UNL1        0.0000
     33 C         136.7960  143.2139  155.6382 C.ar    1  UNL1        0.0000
     34 C         137.6031  144.4400  155.3297 C.ar    1  UNL1        0.0000
     35 C         139.0500  144.5033  155.7202 C.ar    1  UNL1        0.0000
     36 C         139.6898  143.3406  156.4192 C.ar    1  UNL1        0.0000
     37 C         138.7789  141.9209  159.7198 C.1     1  UNL1        0.1035
     38 N         138.0872  142.9869  160.5167 N.1     1  UNL1       -0.1907
@<TRIPOS>BOND
     1    23    24    1
     2    24    22    1
     3    22    20    1
     4    20    21    2
     5    20     7    1
     6     7     8   ar
     7     8     9   ar
     8     9    13    1
     9    13    14   ar
    10    14    15   ar
    11    15    16   ar
    12    16    17    1
    13    16    18   ar
    14    18    19   ar
    15     9    10   ar
    16    10    11    2
    17    11     1    1
    18     1     2   ar
    19     2     3   ar
    20     3    25    1
    21    25    26   ar
    22    26    27   ar
    23    27    28   ar
    24    28    29   ar
    25    29    30   ar
    26     3     4   ar
    27     4     5   ar
    28     5    31    1
    29    31    32   ar
    30    32    33   ar
    31    33    34   ar
    32    34    35   ar
    33    35    36   ar
    34     5     6   ar
    35     6    37    1
    36    37    38    3
    37    10    12   ar
    38    12     7   ar
    39    19    13   ar
    40     6     1   ar
    41    30    25   ar
    42    36    31   ar
@<TRIPOS>MOLECULE
*****
 38 42 0 0 0
SMALL
GASTEIGER

@<TRIPOS>ATOM
      1 C         140.8233  139.4093  161.4536 C.ar    1  UNL1        0.1740
      2 N         139.9913  138.7841  162.5338 N.ar    1  UNL1       -0.2259
      3 C         139.8837  139.4460  163.8755 C.ar    1  UNL1        0.0830
      4 C         140.6080  140.7332  164.1371 C.ar    1  UNL1        0.0199
      5 C         141.4400  141.3584  163.0569 C.ar    1  UNL1        0.0141
      6 C         141.5477  140.6966  161.7152 C.ar    1  UNL1        0.1042
      7 C         138.2870  140.2992  157.7314 C.ar    1  UNL1        0.2089
      8 N         138.9386  139.2961  156.8263 N.ar    1  UNL1       -0.1500
      9 N         140.0084  138.5927  157.6079 N.ar    1  UNL1       -0.2060
     10 C         140.0180  139.1611  158.9960 C.ar    1  UNL1        0.1983
     11 N         140.9310  138.7475  160.1119 N.2     1  UNL1       -0.2011
     12 S         138.9541  140.2158  159.0723 S.2     1  UNL1       -0.0214
     13 C         140.9104  137.5109  157.0919 C.ar    1  UNL1        0.0850
     14 C         142.2939  137.3578  157.6508 C.ar    1  UNL1        0.0201
     15 C         143.1957  136.2760  157.1348 C.ar    1  UNL1        0.0129
     16 C         142.7140  135.3472  156.0599 C.ar    1  UNL1        0.0578
     17 CL        143.6160  134.2654  155.5439 Cl      1  UNL1       -0.0822
     18 C         141.3305  135.5003  155.5010 C.ar    1  UNL1        0.0129
     19 C         140.4287  136.5821  156.0170 C.ar    1  UNL1        0.0201
     20 C         137.1653  141.2235  157.3606 C.2     1  UNL1        0.3673
     21 O         137.4015  142.7036  157.3015 O.2     1  UNL1       -0.2425
     22 O         135.8073  140.6676  157.0490 O.3     1  UNL1       -0.4440
     23 C         134.0953  140.0350  155.2000 C.3     1  UNL1        0.0513
     24 C         135.1721  140.9418  155.7181 C.3     1  UNL1        0.2090
     25 C         139.0516  138.8207  164.9557 C.ar    1  UNL1        0.0177
     26 C         138.5081  139.6672  166.0684 C.ar    1  UNL1        0.0015
     27 C         137.6760  139.0420  167.1486 C.ar    1  UNL1        0.0000
     28 C         137.3876  137.5703  167.1161 C.ar    1  UNL1        0.0000
     29 C         137.9312  136.7239  166.0035 C.ar    1  UNL1        0.0000
     30 C         138.7632  137.3491  164.9232 C.ar    1  UNL1        0.0015
     31 C         142.1644  142.6457  163.3186 C.ar    1  UNL1        0.0008
     32 C         143.5652  142.6225  163.8545 C.ar    1  UNL1        0.0000
     33 C         144.2895  143.9097  164.1162 C.ar    1  UNL1        0.0000
     34 C         143.6130  145.2201  163.8418 C.ar    1  UNL1        0.0000
     35 C         142.2122  145.2432  163.3058 C.ar    1  UNL1        0.0000
     36 C         141.4879  143.9560  163.0442 C.ar    1  UNL1        0.0000
     37 C         142.3798  141.3219  160.6350 C.1     1  UNL1        0.1035
     38 N         143.2118  141.9471  159.5549 N.1     1  UNL1       -0.1907
@<TRIPOS>BOND
     1    23    24    1
     2    24    22    1
     3    22    20    1
     4    20    21    2
     5    20     7    1
     6     7     8   ar
     7     8     9   ar
     8     9    13    1
     9    13    14   ar
    10    14    15   ar
    11    15    16   ar
    12    16    17    1
    13    16    18   ar
    14    18    19   ar
    15     9    10   ar
    16    10    11    2
    17    11     1    1
    18     1     2   ar
    19     2     3   ar
    20     3    25    1
    21    25    26   ar
    22    26    27   ar
    23    27    28   ar
    24    28    29   ar
    25    29    30   ar
    26     3     4   ar
    27     4     5   ar
    28     5    31    1
    29    31    32   ar
    30    32    33   ar
    31    33    34   ar
    32    34    35   ar
    33    35    36   ar
    34     5     6   ar
    35     6    37    1
    36    37    38    3
    37    10    12   ar
    38    12     7   ar
    39    19    13   ar
    40     6     1   ar
    41    30    25   ar
    42    36    31   ar
@<TRIPOS>MOLECULE
*****
 38 42 0 0 0
SMALL
GASTEIGER

@<TRIPOS>ATOM
      1 C         139.6023  139.3424  159.0322 C.ar    1  UNL1        0.1740
      2 N         138.5135  139.8829  158.1533 N.ar    1  UNL1       -0.2259
      3 C         138.5876  139.6964  156.6668 C.ar    1  UNL1        0.0830
      4 C         139.7504  138.9695  156.0591 C.ar    1  UNL1        0.0199
      5 C         140.8392  138.4290  156.9380 C.ar    1  UNL1        0.0141
      6 C         140.7652  138.6155  158.4244 C.ar    1  UNL1        0.1042
      7 C         141.4781  142.7448  161.4786 C.ar    1  UNL1        0.2089
      8 N         141.0032  142.2813  162.8238 N.ar    1  UNL1       -0.1500
      9 N         140.2150  141.0202  162.6280 N.ar    1  UNL1       -0.2060
     10 C         140.2028  140.7042  161.1617 C.ar    1  UNL1        0.1983
     11 N         139.5283  139.5288  160.5186 N.2     1  UNL1       -0.2011
     12 S         140.9834  141.7701  160.4513 S.2     1  UNL1       -0.0214
     13 C         139.5550  140.2161  163.7087 C.ar    1  UNL1        0.0850
     14 C         139.7692  138.7331  163.7773 C.ar    1  UNL1        0.0201
     15 C         139.1092  137.9292  164.8580 C.ar    1  UNL1        0.0129
     16 C         138.2349  138.6083  165.8702 C.ar    1  UNL1        0.0578
     17 CL        137.5748  137.8043  166.9509 Cl      1  UNL1       -0.0822
     18 C         138.0206  140.0913  165.8016 C.ar    1  UNL1        0.0129
     19 C         138.6807  140.8952  164.7209 C.ar    1  UNL1        0.0201
     20 C         142.3028  143.9681  161.2081 C.2     1  UNL1        0.3673
     21 O         141.6953  145.1397  160.4952 O.2     1  UNL1       -0.2425
     22 O         143.7352  144.0199  161.6506 O.3     1  UNL1       -0.4440
     23 C         143.6198  145.0781  164.0206 C.3     1  UNL1        0.0513
     24 C         144.0709  143.9733  163.1118 C.3     1  UNL1        0.2090
     25 C         137.4988  140.2369  155.7879 C.ar    1  UNL1        0.0177
     26 C         136.9163  141.5916  156.0627 C.ar    1  UNL1        0.0015
     27 C         135.8275  142.1321  155.1838 C.ar    1  UNL1        0.0000
     28 C         135.3211  141.3179  154.0302 C.ar    1  UNL1        0.0000
     29 C         135.9036  139.9632  153.7555 C.ar    1  UNL1        0.0000
     30 C         136.9925  139.4226  154.6344 C.ar    1  UNL1        0.0015
     31 C         142.0022  137.7021  156.3302 C.ar    1  UNL1        0.0008
     32 C         143.2226  138.4629  155.9041 C.ar    1  UNL1        0.0000
     33 C         144.3854  137.7360  155.2963 C.ar    1  UNL1        0.0000
     34 C         144.3278  136.2481  155.1147 C.ar    1  UNL1        0.0000
     35 C         143.1073  135.4873  155.5409 C.ar    1  UNL1        0.0000
     36 C         141.9445  136.2142  156.1486 C.ar    1  UNL1        0.0000
     37 C         141.8541  138.0750  159.3033 C.1     1  UNL1        0.1035
     38 N         142.9429  137.5345  160.1821 N.1     1  UNL1       -0.1907
@<TRIPOS>BOND
     1    23    24    1
     2    24    22    1
     3    22    20    1
     4    20    21    2
     5    20     7    1
     6     7     8   ar
     7     8     9   ar
     8     9    13    1
     9    13    14   ar
    10    14    15   ar
    11    15    16   ar
    12    16    17    1
    13    16    18   ar
    14    18    19   ar
    15     9    10   ar
    16    10    11    2
    17    11     1    1
    18     1     2   ar
    19     2     3   ar
    20     3    25    1
    21    25    26   ar
    22    26    27   ar
    23    27    28   ar
    24    28    29   ar
    25    29    30   ar
    26     3     4   ar
    27     4     5   ar
    28     5    31    1
    29    31    32   ar
    30    32    33   ar
    31    33    34   ar
    32    34    35   ar
    33    35    36   ar
    34     5     6   ar
    35     6    37    1
    36    37    38    3
    37    10    12   ar
    38    12     7   ar
    39    19    13   ar
    40     6     1   ar
    41    30    25   ar
    42    36    31   ar
@<TRIPOS>MOLECULE
*****
 38 42 0 0 0
SMALL
GASTEIGER

@<TRIPOS>ATOM
      1 C         144.6621  141.1644  157.5819 C.ar    1  UNL1        0.1740
      2 N         145.8438  141.7597  156.8755 N.ar    1  UNL1       -0.2259
      3 C         146.3339  141.1551  155.5932 C.ar    1  UNL1        0.0830
      4 C         145.6422  139.9552  155.0173 C.ar    1  UNL1        0.0199
      5 C         144.4604  139.3599  155.7236 C.ar    1  UNL1        0.0141
      6 C         143.9704  139.9644  157.0059 C.ar    1  UNL1        0.1042
      7 C         141.8769  144.7866  158.0322 C.ar    1  UNL1        0.2089
      8 N         141.8374  144.7971  159.5316 N.ar    1  UNL1       -0.1500
      9 N         142.6923  143.6679  160.0258 N.ar    1  UNL1       -0.2060
     10 C         143.2602  142.9596  158.8318 C.ar    1  UNL1        0.1983
     11 N         144.1719  141.7689  158.8641 N.2     1  UNL1       -0.2011
     12 S         142.7563  143.6509  157.5997 S.2     1  UNL1       -0.0214
     13 C         142.9364  143.3100  161.4619 C.ar    1  UNL1        0.0850
     14 C         144.2809  143.5586  162.0787 C.ar    1  UNL1        0.0201
     15 C         144.5249  143.2006  163.5148 C.ar    1  UNL1        0.0129
     16 C         143.4245  142.5941  164.3340 C.ar    1  UNL1        0.0578
     17 CL        143.6686  142.2362  165.7701 Cl      1  UNL1       -0.0822
     18 C         142.0800  142.3456  163.7172 C.ar    1  UNL1        0.0129
     19 C         141.8359  142.7035  162.2812 C.ar    1  UNL1        0.0201
     20 C         141.1626  145.7437  157.1246 C.2     1  UNL1        0.3673
     21 O         139.9751  146.5097  157.6276 O.2     1  UNL1       -0.2425
     22 O         141.6358  145.9347  155.7141 O.3     1  UNL1       -0.4440
     23 C         139.8881  144.2324  154.8211 C.3     1  UNL1        0.0513
     24 C         140.8500  145.3566  154.5746 C.3     1  UNL1        0.2090
     25 C         147.5157  141.7505  154.8869 C.ar    1  UNL1        0.0177
     26 C         148.9019  141.4998  155.4023 C.ar    1  UNL1        0.0015
     27 C         150.0837  142.0951  154.6959 C.ar    1  UNL1        0.0000
     28 C         149.8794  142.9411  153.4742 C.ar    1  UNL1        0.0000
     29 C         148.4932  143.1917  152.9588 C.ar    1  UNL1        0.0000
     30 C         147.3113  142.5964  153.6652 C.ar    1  UNL1        0.0015
     31 C         143.7688  138.1599  155.1476 C.ar    1  UNL1        0.0008
     32 C         144.1512  136.7830  155.6035 C.ar    1  UNL1        0.0000
     33 C         143.4595  135.5831  155.0275 C.ar    1  UNL1        0.0000
     34 C         142.3854  135.7601  153.9956 C.ar    1  UNL1        0.0000
     35 C         142.0029  137.1371  153.5397 C.ar    1  UNL1        0.0000
     36 C         142.6946  138.3369  154.1157 C.ar    1  UNL1        0.0000
     37 C         142.7885  139.3690  157.7123 C.1     1  UNL1        0.1035
     38 N         141.6067  138.7737  158.4186 N.1     1  UNL1       -0.1907
@<TRIPOS>BOND
     1    23    24    1
     2    24    22    1
     3    22    20    1
     4    20    21    2
     5    20     7    1
     6     7     8   ar
     7     8     9   ar
     8     9    13    1
     9    13    14   ar
    10    14    15   ar
    11    15    16   ar
    12    16    17    1
    13    16    18   ar
    14    18    19   ar
    15     9    10   ar
    16    10    11    2
    17    11     1    1
    18     1     2   ar
    19     2     3   ar
    20     3    25    1
    21    25    26   ar
    22    26    27   ar
    23    27    28   ar
    24    28    29   ar
    25    29    30   ar
    26     3     4   ar
    27     4     5   ar
    28     5    31    1
    29    31    32   ar
    30    32    33   ar
    31    33    34   ar
    32    34    35   ar
    33    35    36   ar
    34     5     6   ar
    35     6    37    1
    36    37    38    3
    37    10    12   ar
    38    12     7   ar
    39    19    13   ar
    40     6     1   ar
    41    30    25   ar
    42    36    31   ar
@<TRIPOS>MOLECULE
*****
 38 42 0 0 0
SMALL
GASTEIGER

@<TRIPOS>ATOM
      1 C         143.0044  140.0254  159.0872 C.ar    1  UNL1        0.1740
      2 N         144.1755  140.5668  158.3221 N.ar    1  UNL1       -0.2259
      3 C         144.1798  140.5168  156.8229 C.ar    1  UNL1        0.0830
      4 C         143.0130  139.9254  156.0889 C.ar    1  UNL1        0.0199
      5 C         141.8419  139.3840  156.8540 C.ar    1  UNL1        0.0141
      6 C         141.8376  139.4340  158.3531 C.ar    1  UNL1        0.1042
      7 C         141.5210  143.4788  161.7241 C.ar    1  UNL1        0.2089
      8 N         141.8185  142.8355  163.0461 N.ar    1  UNL1       -0.1500
      9 N         142.4088  141.4823  162.7808 N.ar    1  UNL1       -0.2060
     10 C         142.4761  141.2892  161.2948 C.ar    1  UNL1        0.1983
     11 N         143.0000  140.0754  160.5863 N.2     1  UNL1       -0.2011
     12 S         141.9274  142.5231  160.6417 S.2     1  UNL1       -0.0214
     13 C         142.8536  140.4954  163.8193 C.ar    1  UNL1        0.0850
     14 C         141.8565  139.9142  164.7774 C.ar    1  UNL1        0.0201
     15 C         142.3014  138.9274  165.8157 C.ar    1  UNL1        0.0129
     16 C         143.7433  138.5218  165.8960 C.ar    1  UNL1        0.0578
     17 CL        144.1881  137.5349  166.9344 Cl      1  UNL1       -0.0822
     18 C         144.7403  139.1030  164.9379 C.ar    1  UNL1        0.0129
     19 C         144.2955  140.0898  163.8995 C.ar    1  UNL1        0.0201
     20 C         140.9223  144.8389  161.5202 C.2     1  UNL1        0.3673
     21 O         140.9654  145.4820  160.1658 O.2     1  UNL1       -0.2425
     22 O         140.2804  145.5560  162.6709 O.3     1  UNL1       -0.4440
     23 C         138.9817  144.7539  164.7733 C.3     1  UNL1        0.0513
     24 C         139.0326  145.0058  163.2954 C.3     1  UNL1        0.2090
     25 C         145.3509  141.0581  156.0578 C.ar    1  UNL1        0.0177
     26 C         146.3359  141.9638  156.7359 C.ar    1  UNL1        0.0015
     27 C         147.5070  142.5051  155.9708 C.ar    1  UNL1        0.0000
     28 C         147.6931  142.1410  154.5276 C.ar    1  UNL1        0.0000
     29 C         146.7082  141.2354  153.8495 C.ar    1  UNL1        0.0000
     30 C         145.5370  140.6940  154.6146 C.ar    1  UNL1        0.0015
     31 C         140.6751  138.7926  156.1199 C.ar    1  UNL1        0.0008
     32 C         140.6567  137.3280  155.7963 C.ar    1  UNL1        0.0000
     33 C         139.4899  136.7367  155.0622 C.ar    1  UNL1        0.0000
     34 C         138.3415  137.6099  154.6517 C.ar    1  UNL1        0.0000
     35 C         138.3599  139.0745  154.9752 C.ar    1  UNL1        0.0000
     36 C         139.5267  139.6658  155.7093 C.ar    1  UNL1        0.0000
     37 C         140.6664  138.8926  159.1182 C.1     1  UNL1        0.1035
     38 N         139.4954  138.3512  159.8834 N.1     1  UNL1       -0.1907
@<TRIPOS>BOND
     1    23    24    1
     2    24    22    1
     3    22    20    1
     4    20    21    2
     5    20     7    1
     6     7     8   ar
     7     8     9   ar
     8     9    13    1
     9    13    14   ar
    10    14    15   ar
    11    15    16   ar
    12    16    17    1
    13    16    18   ar
    14    18    19   ar
    15     9    10   ar
    16    10    11    2
    17    11     1    1
    18     1     2   ar
    19     2     3   ar
    20     3    25    1
    21    25    26   ar
    22    26    27   ar
    23    27    28   ar
    24    28    29   ar
    25    29    30   ar
    26     3     4   ar
    27     4     5   ar
    28     5    31    1
    29    31    32   ar
    30    32    33   ar
    31    33    34   ar
    32    34    35   ar
    33    35    36   ar
    34     5     6   ar
    35     6    37    1
    36    37    38    3
    37    10    12   ar
    38    12     7   ar
    39    19    13   ar
    40     6     1   ar
    41    30    25   ar
    42    36    31   ar
@<TRIPOS>MOLECULE
*****
 38 42 0 0 0
SMALL
GASTEIGER

@<TRIPOS>ATOM
      1 C         143.0806  139.0884  158.6792 C.ar    1  UNL1        0.1740
      2 N         142.5891  137.8761  157.9453 N.ar    1  UNL1       -0.2259
      3 C         142.8113  137.7529  156.4670 C.ar    1  UNL1        0.0830
      4 C         143.5250  138.8422  155.7226 C.ar    1  UNL1        0.0199
      5 C         144.0165  140.0545  156.4565 C.ar    1  UNL1        0.0141
      6 C         143.7943  140.1777  157.9347 C.ar    1  UNL1        0.1042
      7 C         139.9867  141.7457  160.7879 C.ar    1  UNL1        0.2089
      8 N         140.3428  141.3560  162.1920 N.ar    1  UNL1       -0.1500
      9 N         141.4619  140.3593  162.1267 N.ar    1  UNL1       -0.2060
     10 C         141.7975  140.1330  160.6824 C.ar    1  UNL1        0.1983
     11 N         142.8584  139.2117  160.1575 N.2     1  UNL1       -0.2011
     12 S         140.8858  140.9899  159.8549 S.2     1  UNL1       -0.0214
     13 C         142.1285  139.7040  163.2999 C.ar    1  UNL1        0.0850
     14 C         141.3963  138.6624  164.0930 C.ar    1  UNL1        0.0201
     15 C         142.0628  138.0071  165.2661 C.ar    1  UNL1        0.0129
     16 C         143.4615  138.3934  165.6462 C.ar    1  UNL1        0.0578
     17 CL        144.1281  137.7380  166.8194 Cl      1  UNL1       -0.0822
     18 C         144.1937  139.4350  164.8531 C.ar    1  UNL1        0.0129
     19 C         143.5271  140.0903  163.6800 C.ar    1  UNL1        0.0201
     20 C         138.9191  142.7202  160.3873 C.2     1  UNL1        0.3673
     21 O         139.0712  143.5245  159.1303 O.2     1  UNL1       -0.2425
     22 O         137.6993  142.8903  161.2435 O.3     1  UNL1       -0.4440
     23 C         138.5926  144.7357  162.8393 C.3     1  UNL1        0.0513
     24 C         137.8257  143.4647  162.6234 C.3     1  UNL1        0.2090
     25 C         142.3199  136.5406  155.7331 C.ar    1  UNL1        0.0177
     26 C         141.7029  136.6858  154.3736 C.ar    1  UNL1        0.0015
     27 C         141.2114  135.4734  153.6397 C.ar    1  UNL1        0.0000
     28 C         141.3369  134.1158  154.2652 C.ar    1  UNL1        0.0000
     29 C         141.9539  133.9707  155.6247 C.ar    1  UNL1        0.0000
     30 C         142.4454  135.1830  156.3587 C.ar    1  UNL1        0.0015
     31 C         144.7302  141.1438  155.7119 C.ar    1  UNL1        0.0008
     32 C         146.2259  141.1205  155.6004 C.ar    1  UNL1        0.0000
     33 C         146.9395  142.2097  154.8559 C.ar    1  UNL1        0.0000
     34 C         146.1575  143.3222  154.2229 C.ar    1  UNL1        0.0000
     35 C         144.6618  143.3455  154.3344 C.ar    1  UNL1        0.0000
     36 C         143.9482  142.2563  155.0789 C.ar    1  UNL1        0.0000
     37 C         144.2858  141.3901  158.6686 C.1     1  UNL1        0.1035
     38 N         144.7773  142.6025  159.4025 N.1     1  UNL1       -0.1907
@<TRIPOS>BOND
     1    23    24    1
     2    24    22    1
     3    22    20    1
     4    20    21    2
     5    20     7    1
     6     7     8   ar
     7     8     9   ar
     8     9    13    1
     9    13    14   ar
    10    14    15   ar
    11    15    16   ar
    12    16    17    1
    13    16    18   ar
    14    18    19   ar
    15     9    10   ar
    16    10    11    2
    17    11     1    1
    18     1     2   ar
    19     2     3   ar
    20     3    25    1
    21    25    26   ar
    22    26    27   ar
    23    27    28   ar
    24    28    29   ar
    25    29    30   ar
    26     3     4   ar
    27     4     5   ar
    28     5    31    1
    29    31    32   ar
    30    32    33   ar
    31    33    34   ar
    32    34    35   ar
    33    35    36   ar
    34     5     6   ar
    35     6    37    1
    36    37    38    3
    37    10    12   ar
    38    12     7   ar
    39    19    13   ar
    40     6     1   ar
    41    30    25   ar
    42    36    31   ar
@<TRIPOS>MOLECULE
*****
 38 42 0 0 0
SMALL
GASTEIGER

@<TRIPOS>ATOM
      1 C         139.4933  138.5494  156.9739 C.ar    1  UNL1        0.1740
      2 N         139.3133  139.0575  158.3737 N.ar    1  UNL1       -0.2259
      3 C         138.3707  140.1926  158.6441 C.ar    1  UNL1        0.0830
      4 C         137.6083  140.8196  157.5148 C.ar    1  UNL1        0.0199
      5 C         137.7883  140.3115  156.1150 C.ar    1  UNL1        0.0141
      6 C         138.7308  139.1765  155.8445 C.ar    1  UNL1        0.1042
      7 C         143.9550  138.8609  155.9364 C.ar    1  UNL1        0.2089
      8 N         144.2135  137.3885  155.8125 N.ar    1  UNL1       -0.1500
      9 N         142.9267  136.6674  156.0847 N.ar    1  UNL1       -0.2060
     10 C         141.8728  137.6941  156.3769 C.ar    1  UNL1        0.1983
     11 N         140.4358  137.4143  156.7033 N.2     1  UNL1       -0.2011
     12 S         142.5083  139.0497  156.2852 S.2     1  UNL1       -0.0214
     13 C         142.7285  135.1806  156.0678 C.ar    1  UNL1        0.0850
     14 C         143.4664  134.3144  157.0451 C.ar    1  UNL1        0.0201
     15 C         143.2682  132.8277  157.0281 C.ar    1  UNL1        0.0129
     16 C         142.3321  132.2072  156.0338 C.ar    1  UNL1        0.0578
     17 CL        142.1340  130.7204  156.0168 Cl      1  UNL1       -0.0822
     18 C         141.5942  133.0733  155.0564 C.ar    1  UNL1        0.0129
     19 C         141.7924  134.5601  155.0734 C.ar    1  UNL1        0.0201
     20 C         144.9656  139.9527  155.7451 C.2     1  UNL1        0.3673
     21 O         145.4292  140.3120  154.3646 O.2     1  UNL1       -0.2425
     22 O         145.5126  140.6851  156.9344 O.3     1  UNL1       -0.4440
     23 C         147.3700  142.4431  156.4763 C.3     1  UNL1        0.0513
     24 C         145.9426  142.1160  156.8013 C.3     1  UNL1        0.2090
     25 C         138.1907  140.7007  160.0439 C.ar    1  UNL1        0.0177
     26 C         137.8932  139.7409  161.1577 C.ar    1  UNL1        0.0015
     27 C         137.7131  140.2490  162.5574 C.ar    1  UNL1        0.0000
     28 C         137.8305  141.7168  162.8436 C.ar    1  UNL1        0.0000
     29 C         138.1280  142.6765  161.7298 C.ar    1  UNL1        0.0000
     30 C         138.3081  142.1685  160.3299 C.ar    1  UNL1        0.0015
     31 C         137.0258  140.9387  154.9856 C.ar    1  UNL1        0.0008
     32 C         137.5807  142.1421  154.2829 C.ar    1  UNL1        0.0000
     33 C         136.8181  142.7691  153.1536 C.ar    1  UNL1        0.0000
     34 C         135.5007  142.1927  152.7270 C.ar    1  UNL1        0.0000
     35 C         134.9457  140.9893  153.4298 C.ar    1  UNL1        0.0000
     36 C         135.7083  140.3622  154.5590 C.ar    1  UNL1        0.0000
     37 C         138.9108  138.6684  154.4447 C.1     1  UNL1        0.1035
     38 N         139.0909  138.1603  153.0449 N.1     1  UNL1       -0.1907
@<TRIPOS>BOND
     1    23    24    1
     2    24    22    1
     3    22    20    1
     4    20    21    2
     5    20     7    1
     6     7     8   ar
     7     8     9   ar
     8     9    13    1
     9    13    14   ar
    10    14    15   ar
    11    15    16   ar
    12    16    17    1
    13    16    18   ar
    14    18    19   ar
    15     9    10   ar
    16    10    11    2
    17    11     1    1
    18     1     2   ar
    19     2     3   ar
    20     3    25    1
    21    25    26   ar
    22    26    27   ar
    23    27    28   ar
    24    28    29   ar
    25    29    30   ar
    26     3     4   ar
    27     4     5   ar
    28     5    31    1
    29    31    32   ar
    30    32    33   ar
    31    33    34   ar
    32    34    35   ar
    33    35    36   ar
    34     5     6   ar
    35     6    37    1
    36    37    38    3
    37    10    12   ar
    38    12     7   ar
    39    19    13   ar
    40     6     1   ar
    41    30    25   ar
    42    36    31   ar
@<TRIPOS>MOLECULE
*****
 38 42 0 0 0
SMALL
GASTEIGER

@<TRIPOS>ATOM
      1 C         141.7660  138.4572  157.9484 C.ar    1  UNL1        0.1740
      2 N         141.8514  137.0937  157.3293 N.ar    1  UNL1       -0.2259
      3 C         142.8045  136.8417  156.1987 C.ar    1  UNL1        0.0830
      4 C         143.6722  137.9532  155.6874 C.ar    1  UNL1        0.0199
      5 C         143.5868  139.3168  156.3065 C.ar    1  UNL1        0.0141
      6 C         142.6338  139.5688  157.4370 C.ar    1  UNL1        0.1042
      7 C         137.6240  140.4191  157.6743 C.ar    1  UNL1        0.2089
      8 N         137.2871  140.3313  159.1333 N.ar    1  UNL1       -0.1500
      9 N         138.4407  139.6801  159.8371 N.ar    1  UNL1       -0.2060
     10 C         139.4906  139.3655  158.8130 C.ar    1  UNL1        0.1983
     11 N         140.8130  138.7093  159.0789 N.2     1  UNL1       -0.2011
     12 S         138.9859  139.8221  157.4763 S.2     1  UNL1       -0.0214
     13 C         138.5289  139.3939  161.3069 C.ar    1  UNL1        0.0850
     14 C         138.8586  138.0103  161.7831 C.ar    1  UNL1        0.0201
     15 C         138.9468  137.7242  163.2529 C.ar    1  UNL1        0.0129
     16 C         138.7052  138.8216  164.2465 C.ar    1  UNL1        0.0578
     17 CL        138.7933  138.5354  165.7163 Cl      1  UNL1       -0.0822
     18 C         138.3754  140.2052  163.7703 C.ar    1  UNL1        0.0129
     19 C         138.2872  140.4914  162.3005 C.ar    1  UNL1        0.0201
     20 C         136.7522  141.0015  156.6015 C.2     1  UNL1        0.3673
     21 O         136.8530  142.4591  156.2624 O.2     1  UNL1       -0.2425
     22 O         135.7797  140.1262  155.8680 O.3     1  UNL1       -0.4440
     23 C         133.6179  139.6883  157.2409 C.3     1  UNL1        0.0513
     24 C         134.3047  140.3155  156.0641 C.3     1  UNL1        0.2090
     25 C         142.8899  135.4781  155.5796 C.ar    1  UNL1        0.0177
     26 C         143.6489  134.3858  156.2731 C.ar    1  UNL1        0.0015
     27 C         143.7343  133.0222  155.6539 C.ar    1  UNL1        0.0000
     28 C         143.0608  132.7509  154.3413 C.ar    1  UNL1        0.0000
     29 C         142.3019  133.8432  153.6479 C.ar    1  UNL1        0.0000
     30 C         142.2165  135.2069  154.2670 C.ar    1  UNL1        0.0015
     31 C         144.4546  140.4284  155.7951 C.ar    1  UNL1        0.0008
     32 C         144.0938  141.1370  154.5232 C.ar    1  UNL1        0.0000
     33 C         144.9616  142.2485  154.0118 C.ar    1  UNL1        0.0000
     34 C         146.1901  142.6514  154.7724 C.ar    1  UNL1        0.0000
     35 C         146.5509  141.9427  156.0443 C.ar    1  UNL1        0.0000
     36 C         145.6831  140.8312  156.5556 C.ar    1  UNL1        0.0000
     37 C         142.5484  140.9325  158.0562 C.1     1  UNL1        0.1035
     38 N         142.4630  142.2960  158.6753 N.1     1  UNL1       -0.1907
@<TRIPOS>BOND
     1    23    24    1
     2    24    22    1
     3    22    20    1
     4    20    21    2
     5    20     7    1
     6     7     8   ar
     7     8     9   ar
     8     9    13    1
     9    13    14   ar
    10    14    15   ar
    11    15    16   ar
    12    16    17    1
    13    16    18   ar
    14    18    19   ar
    15     9    10   ar
    16    10    11    2
    17    11     1    1
    18     1     2   ar
    19     2     3   ar
    20     3    25    1
    21    25    26   ar
    22    26    27   ar
    23    27    28   ar
    24    28    29   ar
    25    29    30   ar
    26     3     4   ar
    27     4     5   ar
    28     5    31    1
    29    31    32   ar
    30    32    33   ar
    31    33    34   ar
    32    34    35   ar
    33    35    36   ar
    34     5     6   ar
    35     6    37    1
    36    37    38    3
    37    10    12   ar
    38    12     7   ar
    39    19    13   ar
    40     6     1   ar
    41    30    25   ar
    42    36    31   ar
@<TRIPOS>MOLECULE
*****
 38 42 0 0 0
SMALL
GASTEIGER

@<TRIPOS>ATOM
      1 C         140.3287  142.7817  157.4316 C.ar    1  UNL1        0.1740
      2 N         140.1174  143.9672  156.5373 N.ar    1  UNL1       -0.2259
      3 C         140.1259  145.3522  157.1133 C.ar    1  UNL1        0.0830
      4 C         140.3456  145.5517  158.5836 C.ar    1  UNL1        0.0199
      5 C         140.5568  144.3661  159.4779 C.ar    1  UNL1        0.0141
      6 C         140.5484  142.9812  158.9020 C.ar    1  UNL1        0.1042
      7 C         136.6637  140.4156  156.0003 C.ar    1  UNL1        0.2089
      8 N         137.4017  139.1799  155.5779 N.ar    1  UNL1       -0.1500
      9 N         138.8614  139.3970  155.8469 N.ar    1  UNL1       -0.2060
     10 C         139.0254  140.7669  156.4356 C.ar    1  UNL1        0.1983
     11 N         140.3203  141.3967  156.8557 N.2     1  UNL1       -0.2011
     12 S         137.6672  141.3964  156.5304 S.2     1  UNL1       -0.0214
     13 C         139.9634  138.4164  155.5750 C.ar    1  UNL1        0.0850
     14 C         140.4972  138.2551  154.1826 C.ar    1  UNL1        0.0201
     15 C         141.5992  137.2746  153.9107 C.ar    1  UNL1        0.0129
     16 C         142.1675  136.4552  155.0313 C.ar    1  UNL1        0.0578
     17 CL        143.2695  135.4746  154.7594 Cl      1  UNL1       -0.0822
     18 C         141.6337  136.6165  156.4238 C.ar    1  UNL1        0.0129
     19 C         140.5317  137.5971  156.6956 C.ar    1  UNL1        0.0201
     20 C         135.1823  140.6324  155.9087 C.2     1  UNL1        0.3673
     21 O         134.6340  141.6897  154.9968 O.2     1  UNL1       -0.2425
     22 O         134.2491  139.7918  156.7289 O.3     1  UNL1       -0.4440
     23 C         131.8461  138.8078  156.8132 C.3     1  UNL1        0.0513
     24 C         132.7658  139.9732  156.5988 C.3     1  UNL1        0.2090
     25 C         139.9146  146.5377  156.2189 C.ar    1  UNL1        0.0177
     26 C         140.5897  146.5973  154.8806 C.ar    1  UNL1        0.0015
     27 C         140.3784  147.7829  153.9863 C.ar    1  UNL1        0.0000
     28 C         139.4921  148.9088  154.4301 C.ar    1  UNL1        0.0000
     29 C         138.8171  148.8491  155.7683 C.ar    1  UNL1        0.0000
     30 C         139.0283  147.6636  156.6628 C.ar    1  UNL1        0.0015
     31 C         140.7765  144.5657  160.9484 C.ar    1  UNL1        0.0008
     32 C         139.6103  144.8420  161.8503 C.ar    1  UNL1        0.0000
     33 C         139.8301  145.0415  163.3206 C.ar    1  UNL1        0.0000
     34 C         141.2161  144.9647  163.8890 C.ar    1  UNL1        0.0000
     35 C         142.3823  144.6884  162.9871 C.ar    1  UNL1        0.0000
     36 C         142.1625  144.4888  161.5167 C.ar    1  UNL1        0.0000
     37 C         140.7597  141.7956  159.7964 C.1     1  UNL1        0.1035
     38 N         140.9710  140.6101  160.6908 N.1     1  UNL1       -0.1907
@<TRIPOS>BOND
     1    23    24    1
     2    24    22    1
     3    22    20    1
     4    20    21    2
     5    20     7    1
     6     7     8   ar
     7     8     9   ar
     8     9    13    1
     9    13    14   ar
    10    14    15   ar
    11    15    16   ar
    12    16    17    1
    13    16    18   ar
    14    18    19   ar
    15     9    10   ar
    16    10    11    2
    17    11     1    1
    18     1     2   ar
    19     2     3   ar
    20     3    25    1
    21    25    26   ar
    22    26    27   ar
    23    27    28   ar
    24    28    29   ar
    25    29    30   ar
    26     3     4   ar
    27     4     5   ar
    28     5    31    1
    29    31    32   ar
    30    32    33   ar
    31    33    34   ar
    32    34    35   ar
    33    35    36   ar
    34     5     6   ar
    35     6    37    1
    36    37    38    3
    37    10    12   ar
    38    12     7   ar
    39    19    13   ar
    40     6     1   ar
    41    30    25   ar
    42    36    31   ar
