@<TRIPOS>MOLECULE
*****
 23 24 0 0 0
SMALL
GASTEIGER

@<TRIPOS>ATOM
      1 O         142.5332  141.4387  165.2321 O.3     1  UNL1       -0.4537
      2 C         142.5451  143.8371  164.2332 C.ar    1  UNL1        0.0282
      3 C         141.8053  145.0703  163.8066 C.ar    1  UNL1        0.0010
      4 C         140.3139  145.1383  163.9522 C.ar    1  UNL1        0.0113
      5 C         139.5623  143.9731  164.5243 C.ar    1  UNL1        0.0607
      6 CL        138.0709  144.0411  164.6699 Cl      1  UNL1       -0.0821
      7 C         140.3021  142.7400  164.9510 C.ar    1  UNL1        0.0486
      8 C         141.7934  142.6720  164.8054 C.ar    1  UNL1        0.1434
      9 C         144.0364  143.7691  164.0877 C.3     1  UNL1        0.0987
     10 C         145.6780  141.7751  163.8064 C.3     1  UNL1        0.0861
     11 N         144.6585  142.7102  163.2265 N.3     1  UNL1       -0.2925
     12 H         143.8958  142.1321  162.8736 H       1  UNL1        0.1236
     13 C         142.6449  141.0973  166.6884 C.ar    1  UNL1        0.1454
     14 C         142.4524  139.6811  167.1437 C.ar    1  UNL1        0.0398
     15 C         142.5642  139.3397  168.6000 C.ar    1  UNL1        0.0327
     16 C         142.8684  140.4145  169.6011 C.ar    1  UNL1        0.1442
     17 F         142.9801  140.0731  171.0575 F       1  UNL1       -0.2042
     18 C         143.0608  141.8307  169.1459 C.ar    1  UNL1        0.1018
     19 C         142.9491  142.1722  167.6895 C.ar    1  UNL1        0.0436
     20 C         143.3650  142.9055  170.1470 C.3     1  UNL1        0.4208
     21 F         143.6693  143.9804  171.1481 F       1  UNL1       -0.1658
     22 F         144.8172  142.5317  170.1071 F       1  UNL1       -0.1658
     23 F         141.9129  143.2794  170.1869 F       1  UNL1       -0.1658
@<TRIPOS>BOND
     1    10    11    1
     2    11     9    1
     3     9     2    1
     4     2     3   ar
     5     3     4   ar
     6     4     5   ar
     7     5     6    1
     8     5     7   ar
     9     7     8   ar
    10     8     1    1
    11     1    13    1
    12    13    14   ar
    13    14    15   ar
    14    15    16   ar
    15    16    17    1
    16    16    18   ar
    17    18    20    1
    18    20    21    1
    19    20    22    1
    20    20    23    1
    21    18    19   ar
    22     8     2   ar
    23    19    13   ar
    24    11    12    1
@<TRIPOS>MOLECULE
*****
 23 24 0 0 0
SMALL
GASTEIGER

@<TRIPOS>ATOM
      1 O         141.0073  142.1562  165.3528 O.3     1  UNL1       -0.4537
      2 C         138.8682  140.8998  164.5811 C.ar    1  UNL1        0.0282
      3 C         138.1819  139.6270  164.1826 C.ar    1  UNL1        0.0010
      4 C         138.9483  138.3378  164.1572 C.ar    1  UNL1        0.0113
      5 C         140.4010  138.3214  164.5303 C.ar    1  UNL1        0.0607
      6 CL        141.1674  137.0322  164.5050 Cl      1  UNL1       -0.0821
      7 C         141.0873  139.5942  164.9288 C.ar    1  UNL1        0.0486
      8 C         140.3209  140.8834  164.9542 C.ar    1  UNL1        0.1434
      9 C         138.1018  142.1890  164.6065 C.3     1  UNL1        0.0987
     10 C         138.6043  144.6951  165.0721 C.3     1  UNL1        0.0861
     11 N         138.7784  143.4714  164.2222 N.3     1  UNL1       -0.2925
     12 H         139.7791  143.2772  164.1870 H       1  UNL1        0.1236
     13 C         141.4674  142.3491  166.7674 C.ar    1  UNL1        0.1454
     14 C         142.9152  142.1696  167.1163 C.ar    1  UNL1        0.0398
     15 C         143.3752  142.3625  168.5309 C.ar    1  UNL1        0.0327
     16 C         142.3874  142.7349  169.5966 C.ar    1  UNL1        0.1442
     17 F         142.8474  142.9277  171.0112 F       1  UNL1       -0.2042
     18 C         140.9397  142.9144  169.2477 C.ar    1  UNL1        0.1018
     19 C         140.4796  142.7215  167.8331 C.ar    1  UNL1        0.0436
     20 C         139.9520  143.2868  170.3134 C.3     1  UNL1        0.4208
     21 F         138.9642  143.6592  171.3791 F       1  UNL1       -0.1658
     22 F         139.5664  141.8446  170.4600 F       1  UNL1       -0.1658
     23 F         140.3375  144.7289  170.1668 F       1  UNL1       -0.1658
@<TRIPOS>BOND
     1    10    11    1
     2    11     9    1
     3     9     2    1
     4     2     3   ar
     5     3     4   ar
     6     4     5   ar
     7     5     6    1
     8     5     7   ar
     9     7     8   ar
    10     8     1    1
    11     1    13    1
    12    13    14   ar
    13    14    15   ar
    14    15    16   ar
    15    16    17    1
    16    16    18   ar
    17    18    20    1
    18    20    21    1
    19    20    22    1
    20    20    23    1
    21    18    19   ar
    22     8     2   ar
    23    19    13   ar
    24    11    12    1
@<TRIPOS>MOLECULE
*****
 23 24 0 0 0
SMALL
GASTEIGER

@<TRIPOS>ATOM
      1 O         140.8885  141.5090  165.5151 O.3     1  UNL1       -0.4537
      2 C         140.6978  139.2209  164.2991 C.ar    1  UNL1        0.0282
      3 C         140.0404  137.8812  164.1476 C.ar    1  UNL1        0.0010
      4 C         138.9164  137.4897  165.0605 C.ar    1  UNL1        0.0113
      5 C         138.4498  138.4380  166.1249 C.ar    1  UNL1        0.0607
      6 CL        137.3258  138.0465  167.0378 Cl      1  UNL1       -0.0821
      7 C         139.1071  139.7777  166.2764 C.ar    1  UNL1        0.0486
      8 C         140.2311  140.1692  165.3635 C.ar    1  UNL1        0.1434
      9 C         141.8218  139.6124  163.3862 C.3     1  UNL1        0.0987
     10 C         143.7948  139.0640  164.9850 C.3     1  UNL1        0.0861
     11 N         143.1659  139.9562  163.9562 N.3     1  UNL1       -0.2925
     12 H         143.8153  140.0037  163.1711 H       1  UNL1        0.1236
     13 C         141.3997  141.9462  166.8557 C.ar    1  UNL1        0.1454
     14 C         142.8708  141.9081  167.1464 C.ar    1  UNL1        0.0398
     15 C         143.3820  142.3453  168.4870 C.ar    1  UNL1        0.0327
     16 C         142.4222  142.8207  169.5371 C.ar    1  UNL1        0.1442
     17 F         142.9334  143.2579  170.8778 F       1  UNL1       -0.2042
     18 C         140.9511  142.8588  169.2466 C.ar    1  UNL1        0.1018
     19 C         140.4398  142.4216  167.9058 C.ar    1  UNL1        0.0436
     20 C         139.9913  143.3342  170.2967 C.3     1  UNL1        0.4208
     21 F         139.0314  143.8095  171.3468 F       1  UNL1       -0.1658
     22 F         139.5046  141.9283  170.4883 F       1  UNL1       -0.1658
     23 F         140.4779  144.7400  170.1051 F       1  UNL1       -0.1658
@<TRIPOS>BOND
     1    10    11    1
     2    11     9    1
     3     9     2    1
     4     2     3   ar
     5     3     4   ar
     6     4     5   ar
     7     5     6    1
     8     5     7   ar
     9     7     8   ar
    10     8     1    1
    11     1    13    1
    12    13    14   ar
    13    14    15   ar
    14    15    16   ar
    15    16    17    1
    16    16    18   ar
    17    18    20    1
    18    20    21    1
    19    20    22    1
    20    20    23    1
    21    18    19   ar
    22     8     2   ar
    23    19    13   ar
    24    11    12    1
@<TRIPOS>MOLECULE
*****
 23 24 0 0 0
SMALL
GASTEIGER

@<TRIPOS>ATOM
      1 O         140.8707  141.1531  165.5549 O.3     1  UNL1       -0.4537
      2 C         138.5529  141.3738  164.4020 C.ar    1  UNL1        0.0282
      3 C         137.5776  142.1715  163.5882 C.ar    1  UNL1        0.0010
      4 C         137.9447  143.5461  163.1133 C.ar    1  UNL1        0.0113
      5 C         139.2871  144.1231  163.4522 C.ar    1  UNL1        0.0607
      6 CL        139.6542  145.4978  162.9773 Cl      1  UNL1       -0.0821
      7 C         140.2624  143.3254  164.2661 C.ar    1  UNL1        0.0486
      8 C         139.8953  141.9508  164.7410 C.ar    1  UNL1        0.1434
      9 C         138.1858  139.9991  164.8769 C.3     1  UNL1        0.0987
     10 C         137.7916  138.3363  166.8339 C.3     1  UNL1        0.0861
     11 N         138.3180  139.6470  166.3290 N.3     1  UNL1       -0.2925
     12 H         139.3141  139.6682  166.5475 H       1  UNL1        0.1236
     13 C         141.3833  141.6966  166.8555 C.ar    1  UNL1        0.1454
     14 C         142.8604  141.7879  167.1002 C.ar    1  UNL1        0.0398
     15 C         143.3730  142.3314  168.4009 C.ar    1  UNL1        0.0327
     16 C         142.4085  142.7836  169.4570 C.ar    1  UNL1        0.1442
     17 F         142.9211  143.3271  170.7576 F       1  UNL1       -0.2042
     18 C         140.9315  142.6923  169.2123 C.ar    1  UNL1        0.1018
     19 C         140.4188  142.1488  167.9116 C.ar    1  UNL1        0.0436
     20 C         139.9670  143.1445  170.2684 C.3     1  UNL1        0.4208
     21 F         139.0025  143.5967  171.3245 F       1  UNL1       -0.1658
     22 F         139.5611  141.7204  170.5075 F       1  UNL1       -0.1658
     23 F         140.3729  144.5686  170.0293 F       1  UNL1       -0.1658
@<TRIPOS>BOND
     1    10    11    1
     2    11     9    1
     3     9     2    1
     4     2     3   ar
     5     3     4   ar
     6     4     5   ar
     7     5     6    1
     8     5     7   ar
     9     7     8   ar
    10     8     1    1
    11     1    13    1
    12    13    14   ar
    13    14    15   ar
    14    15    16   ar
    15    16    17    1
    16    16    18   ar
    17    18    20    1
    18    20    21    1
    19    20    22    1
    20    20    23    1
    21    18    19   ar
    22     8     2   ar
    23    19    13   ar
    24    11    12    1
@<TRIPOS>MOLECULE
*****
 23 24 0 0 0
SMALL
GASTEIGER

@<TRIPOS>ATOM
      1 O         141.2047  142.6814  165.2325 O.3     1  UNL1       -0.4537
      2 C         138.8500  143.2099  164.2702 C.ar    1  UNL1        0.0282
      3 C         137.5881  142.7533  163.6002 C.ar    1  UNL1        0.0010
      4 C         137.4189  141.3115  163.2224 C.ar    1  UNL1        0.0113
      5 C         138.5116  140.3264  163.5146 C.ar    1  UNL1        0.0607
      6 CL        138.3424  138.8846  163.1369 Cl      1  UNL1       -0.0821
      7 C         139.7735  140.7830  164.1847 C.ar    1  UNL1        0.0486
      8 C         139.9427  142.2248  164.5624 C.ar    1  UNL1        0.1434
      9 C         139.0192  144.6517  164.6480 C.3     1  UNL1        0.0987
     10 C         140.3283  145.4391  162.5465 C.3     1  UNL1        0.0861
     11 N         140.1190  145.4644  164.0316 N.3     1  UNL1       -0.2925
     12 H         139.9460  146.4363  164.2881 H       1  UNL1        0.1236
     13 C         141.4569  142.3378  166.6706 C.ar    1  UNL1        0.1454
     14 C         142.6104  141.4523  167.0390 C.ar    1  UNL1        0.0398
     15 C         142.8626  141.1086  168.4771 C.ar    1  UNL1        0.0327
     16 C         141.9615  141.6504  169.5469 C.ar    1  UNL1        0.1442
     17 F         142.2137  141.3067  170.9850 F       1  UNL1       -0.2042
     18 C         140.8081  142.5358  169.1786 C.ar    1  UNL1        0.1018
     19 C         140.5558  142.8795  167.7404 C.ar    1  UNL1        0.0436
     20 C         139.9070  143.0776  170.2484 C.3     1  UNL1        0.4208
     21 F         139.0059  143.6194  171.3182 F       1  UNL1       -0.1658
     22 F         140.5651  144.4197  170.1230 F       1  UNL1       -0.1658
     23 F         139.2489  141.7356  170.3737 F       1  UNL1       -0.1658
@<TRIPOS>BOND
     1    10    11    1
     2    11     9    1
     3     9     2    1
     4     2     3   ar
     5     3     4   ar
     6     4     5   ar
     7     5     6    1
     8     5     7   ar
     9     7     8   ar
    10     8     1    1
    11     1    13    1
    12    13    14   ar
    13    14    15   ar
    14    15    16   ar
    15    16    17    1
    16    16    18   ar
    17    18    20    1
    18    20    21    1
    19    20    22    1
    20    20    23    1
    21    18    19   ar
    22     8     2   ar
    23    19    13   ar
    24    11    12    1
@<TRIPOS>MOLECULE
*****
 23 24 0 0 0
SMALL
GASTEIGER

@<TRIPOS>ATOM
      1 O         141.6570  139.2815  165.8725 O.3     1  UNL1       -0.4537
      2 C         139.8228  139.8975  167.6064 C.ar    1  UNL1        0.0282
      3 C         139.4242  140.2245  169.0150 C.ar    1  UNL1        0.0010
      4 C         140.4611  140.2627  170.0983 C.ar    1  UNL1        0.0113
      5 C         141.8966  139.9738  169.7729 C.ar    1  UNL1        0.0607
      6 CL        142.9335  140.0119  170.8562 Cl      1  UNL1       -0.0821
      7 C         142.2952  139.6467  168.3644 C.ar    1  UNL1        0.0486
      8 C         141.2583  139.6086  167.2811 C.ar    1  UNL1        0.1434
      9 C         138.7859  139.8593  166.5232 C.3     1  UNL1        0.0987
     10 C         138.6830  138.7267  164.1873 C.3     1  UNL1        0.0861
     11 N         138.6242  138.6274  165.6829 N.3     1  UNL1       -0.2925
     12 H         139.3607  137.9803  165.9642 H       1  UNL1        0.1236
     13 C         142.8291  139.9754  165.2444 C.ar    1  UNL1        0.1454
     14 C         143.9520  139.1708  164.6597 C.ar    1  UNL1        0.0398
     15 C         145.1241  139.8648  164.0316 C.ar    1  UNL1        0.0327
     16 C         145.1734  141.3633  163.9883 C.ar    1  UNL1        0.1442
     17 F         146.3456  142.0573  163.3602 F       1  UNL1       -0.2042
     18 C         144.0507  142.1679  164.5730 C.ar    1  UNL1        0.1018
     19 C         142.8785  141.4740  165.2011 C.ar    1  UNL1        0.0436
     20 C         144.1000  143.6665  164.5297 C.3     1  UNL1        0.4208
     21 F         144.1494  145.1651  164.4863 F       1  UNL1       -0.1658
     22 F         143.2083  143.6610  163.3236 F       1  UNL1       -0.1658
     23 F         144.9918  143.6720  165.7358 F       1  UNL1       -0.1658
@<TRIPOS>BOND
     1    10    11    1
     2    11     9    1
     3     9     2    1
     4     2     3   ar
     5     3     4   ar
     6     4     5   ar
     7     5     6    1
     8     5     7   ar
     9     7     8   ar
    10     8     1    1
    11     1    13    1
    12    13    14   ar
    13    14    15   ar
    14    15    16   ar
    15    16    17    1
    16    16    18   ar
    17    18    20    1
    18    20    21    1
    19    20    22    1
    20    20    23    1
    21    18    19   ar
    22     8     2   ar
    23    19    13   ar
    24    11    12    1
@<TRIPOS>MOLECULE
*****
 23 24 0 0 0
SMALL
GASTEIGER

@<TRIPOS>ATOM
      1 O         138.4025  139.4056  165.1893 O.3     1  UNL1       -0.4537
      2 C         138.0683  139.9689  162.6751 C.ar    1  UNL1        0.0282
      3 C         137.8645  140.9804  161.5865 C.ar    1  UNL1        0.0010
      4 C         137.7911  142.4403  161.9233 C.ar    1  UNL1        0.0113
      5 C         137.9215  142.8886  163.3488 C.ar    1  UNL1        0.0607
      6 CL        137.8481  144.3484  163.6856 Cl      1  UNL1       -0.0821
      7 C         138.1253  141.8770  164.4374 C.ar    1  UNL1        0.0486
      8 C         138.1987  140.4172  164.1006 C.ar    1  UNL1        0.1434
      9 C         138.1418  138.5090  162.3383 C.3     1  UNL1        0.0987
     10 C         140.6229  137.7702  162.1194 C.3     1  UNL1        0.0861
     11 N         139.2992  137.6855  162.8199 N.3     1  UNL1       -0.2925
     12 H         139.4631  137.9479  163.7918 H       1  UNL1        0.1236
     13 C         139.5908  139.5114  166.0986 C.ar    1  UNL1        0.1454
     14 C         139.4022  139.8870  167.5386 C.ar    1  UNL1        0.0398
     15 C         140.5904  139.9928  168.4479 C.ar    1  UNL1        0.0327
     16 C         141.9673  139.7232  167.9172 C.ar    1  UNL1        0.1442
     17 F         143.1555  139.8290  168.8265 F       1  UNL1       -0.2042
     18 C         142.1559  139.3477  166.4773 C.ar    1  UNL1        0.1018
     19 C         140.9676  139.2418  165.5680 C.ar    1  UNL1        0.0436
     20 C         143.5327  139.0781  165.9467 C.3     1  UNL1        0.4208
     21 F         144.9096  138.8084  165.4161 F       1  UNL1       -0.1658
     22 F         143.6210  140.4930  165.4567 F       1  UNL1       -0.1658
     23 F         143.4445  137.6631  166.4367 F       1  UNL1       -0.1658
@<TRIPOS>BOND
     1    10    11    1
     2    11     9    1
     3     9     2    1
     4     2     3   ar
     5     3     4   ar
     6     4     5   ar
     7     5     6    1
     8     5     7   ar
     9     7     8   ar
    10     8     1    1
    11     1    13    1
    12    13    14   ar
    13    14    15   ar
    14    15    16   ar
    15    16    17    1
    16    16    18   ar
    17    18    20    1
    18    20    21    1
    19    20    22    1
    20    20    23    1
    21    18    19   ar
    22     8     2   ar
    23    19    13   ar
    24    11    12    1
@<TRIPOS>MOLECULE
*****
 23 24 0 0 0
SMALL
GASTEIGER

@<TRIPOS>ATOM
      1 O         142.4057  139.5124  166.8993 O.3     1  UNL1       -0.4537
      2 C         139.8861  139.6680  167.5138 C.ar    1  UNL1        0.0282
      3 C         138.4480  139.4106  167.1742 C.ar    1  UNL1        0.0010
      4 C         138.0911  138.7403  165.8806 C.ar    1  UNL1        0.0113
      5 C         139.1725  138.3274  164.9266 C.ar    1  UNL1        0.0607
      6 CL        138.8156  137.6571  163.6330 Cl      1  UNL1       -0.0821
      7 C         140.6106  138.5848  165.2662 C.ar    1  UNL1        0.0486
      8 C         140.9675  139.2551  166.5598 C.ar    1  UNL1        0.1434
      9 C         140.2430  140.3383  168.8074 C.3     1  UNL1        0.0987
     10 C         142.3232  141.6368  169.6657 C.3     1  UNL1        0.0861
     11 N         141.0981  141.5706  168.8026 N.3     1  UNL1       -0.2925
     12 H         141.4076  141.7105  167.8408 H       1  UNL1        0.1236
     13 C         143.2988  140.1994  165.9091 C.ar    1  UNL1        0.1454
     14 C         144.2058  139.3905  165.0298 C.ar    1  UNL1        0.0398
     15 C         145.0988  140.0774  164.0396 C.ar    1  UNL1        0.0327
     16 C         145.0850  141.5732  163.9287 C.ar    1  UNL1        0.1442
     17 F         145.9780  142.2601  162.9385 F       1  UNL1       -0.2042
     18 C         144.1781  142.3821  164.8080 C.ar    1  UNL1        0.1018
     19 C         143.2850  141.6952  165.7982 C.ar    1  UNL1        0.0436
     20 C         144.1643  143.8779  164.6971 C.3     1  UNL1        0.4208
     21 F         144.1504  145.3738  164.5862 F       1  UNL1       -0.1658
     22 F         145.0798  143.9742  165.8813 F       1  UNL1       -0.1658
     23 F         143.2487  143.7817  163.5128 F       1  UNL1       -0.1658
@<TRIPOS>BOND
     1    10    11    1
     2    11     9    1
     3     9     2    1
     4     2     3   ar
     5     3     4   ar
     6     4     5   ar
     7     5     6    1
     8     5     7   ar
     9     7     8   ar
    10     8     1    1
    11     1    13    1
    12    13    14   ar
    13    14    15   ar
    14    15    16   ar
    15    16    17    1
    16    16    18   ar
    17    18    20    1
    18    20    21    1
    19    20    22    1
    20    20    23    1
    21    18    19   ar
    22     8     2   ar
    23    19    13   ar
    24    11    12    1
@<TRIPOS>MOLECULE
*****
 23 24 0 0 0
SMALL
GASTEIGER

@<TRIPOS>ATOM
      1 O         140.5502  141.9443  164.3426 O.3     1  UNL1       -0.4537
      2 C         141.7250  144.0364  163.3460 C.ar    1  UNL1        0.0282
      3 C         142.9709  144.7240  162.8717 C.ar    1  UNL1        0.0010
      4 C         144.2877  144.0073  162.9194 C.ar    1  UNL1        0.0113
      5 C         144.3587  142.6029  163.4415 C.ar    1  UNL1        0.0607
      6 CL        145.6755  141.8861  163.4892 Cl      1  UNL1       -0.0821
      7 C         143.1129  141.9153  163.9159 C.ar    1  UNL1        0.0486
      8 C         141.7960  142.6320  163.8681 C.ar    1  UNL1        0.1434
      9 C         140.4082  144.7531  163.2983 C.3     1  UNL1        0.0987
     10 C         138.2956  144.5168  164.7919 C.3     1  UNL1        0.0861
     11 N         139.6756  145.0614  164.5703 N.3     1  UNL1       -0.2925
     12 H         140.2550  144.7153  165.3351 H       1  UNL1        0.1236
     13 C         140.3836  141.6128  165.7959 C.ar    1  UNL1        0.1454
     14 C         139.6356  140.3777  166.2025 C.ar    1  UNL1        0.0398
     15 C         139.4690  140.0462  167.6559 C.ar    1  UNL1        0.0327
     16 C         140.0504  140.9497  168.7027 C.ar    1  UNL1        0.1442
     17 F         139.8838  140.6181  170.1560 F       1  UNL1       -0.2042
     18 C         140.7983  142.1847  168.2961 C.ar    1  UNL1        0.1018
     19 C         140.9649  142.5162  166.8427 C.ar    1  UNL1        0.0436
     20 C         141.3796  143.0881  169.3429 C.3     1  UNL1        0.4208
     21 F         141.9610  143.9916  170.3897 F       1  UNL1       -0.1658
     22 F         140.0315  143.7109  169.5542 F       1  UNL1       -0.1658
     23 F         142.7278  142.4654  169.1317 F       1  UNL1       -0.1658
@<TRIPOS>BOND
     1    10    11    1
     2    11     9    1
     3     9     2    1
     4     2     3   ar
     5     3     4   ar
     6     4     5   ar
     7     5     6    1
     8     5     7   ar
     9     7     8   ar
    10     8     1    1
    11     1    13    1
    12    13    14   ar
    13    14    15   ar
    14    15    16   ar
    15    16    17    1
    16    16    18   ar
    17    18    20    1
    18    20    21    1
    19    20    22    1
    20    20    23    1
    21    18    19   ar
    22     8     2   ar
    23    19    13   ar
    24    11    12    1
