@<TRIPOS>MOLECULE
*****
 34 38 0 0 0
SMALL
GASTEIGER

@<TRIPOS>ATOM
      1 C         139.8266  138.4136  163.3014 C.ar    1  UNL1        0.0505
      2 C         138.5342  139.0350  163.7413 C.ar    1  UNL1        0.0148
      3 C         138.3364  139.4166  165.1783 C.ar    1  UNL1        0.0060
      4 C         139.4311  139.1769  166.1755 C.ar    1  UNL1        0.0553
      5 C         140.7235  138.5556  165.7355 C.ar    1  UNL1        0.0060
      6 C         140.9213  138.1739  164.2985 C.ar    1  UNL1        0.0148
      7 C         139.2333  139.5586  167.6126 C.ar    1  UNL1        0.2512
      8 N         138.0591  139.1884  168.4696 N.ar    1  UNL1       -0.1058
      9 N         138.2751  139.7785  169.8316 N.ar    1  UNL1       -0.0923
     10 C         139.5827  140.5133  169.8164 C.ar    1  UNL1        0.3086
     11 O         140.1749  140.3774  168.4451 O.2     1  UNL1       -0.4048
     12 N         140.1912  141.2539  170.9702 N.pl3   1  UNL1       -0.2871
     13 H         139.6653  141.4094  171.7878 H       1  UNL1        0.1512
     14 C         141.6010  141.7577  170.8782 C.3     1  UNL1        0.0925
     15 C         141.9641  142.7870  169.8491 C.3     1  UNL1        0.0386
     16 C         142.9306  142.4444  168.7543 C.3     1  UNL1        0.0738
     17 N         142.4449  142.3031  167.3422 N.3     1  UNL1       -0.2739
     18 C         143.2038  141.6827  166.2067 C.3     1  UNL1        0.0720
     19 C         142.3429  141.7536  164.9803 C.3     1  UNL1        0.0174
     20 C         141.0131  142.2078  164.4557 C.3     1  UNL1        0.0028
     21 C         140.2543  142.8281  165.5912 C.3     1  UNL1        0.0160
     22 C         141.1151  142.7573  166.8176 C.3     1  UNL1        0.0575
     23 C         142.4060  142.0932  166.4400 C.3     1  UNL1        0.0173
     24 O         141.4829  140.1513  161.5022 O.2     1  UNL1       -0.2697
     25 C         140.8525  138.9008  160.9647 C.2     1  UNL1        0.2517
     26 N         140.0244  138.0320  161.8643 N.am    1  UNL1       -0.2803
     27 H         139.6106  137.2113  161.5115 H       1  UNL1        0.1552
     28 C         141.0503  138.5192  159.5275 C.ar    1  UNL1        0.0811
     29 C         139.8720  138.4445  158.6024 C.ar    1  UNL1        0.0068
     30 C         140.0698  138.0629  157.1653 C.ar    1  UNL1        0.0003
     31 C         141.4459  137.7560  156.6534 C.ar    1  UNL1        0.0023
     32 C         142.6242  137.8307  157.5786 C.ar    1  UNL1        0.0298
     33 C         142.4264  138.2123  159.0156 C.ar    1  UNL1        0.1445
     34 F         143.6048  138.2869  159.9408 F       1  UNL1       -0.2040
@<TRIPOS>BOND
     1    24    25    2
     2    25    26   am
     3    26     1    1
     4     1     2   ar
     5     2     3   ar
     6     3     4   ar
     7     4     7    1
     8     7     8   ar
     9     8     9   ar
    10     9    10   ar
    11    10    12    1
    12    12    14    1
    13    14    15    1
    14    15    16    1
    15    16    17    1
    16    17    18    1
    17    19    18    1
    18    19    20    1
    19    20    21    1
    20    22    21    1
    21    22    23    1
    22    10    11   ar
    23     4     5   ar
    24     5     6   ar
    25    25    28    1
    26    28    29   ar
    27    29    30   ar
    28    30    31   ar
    29    31    32   ar
    30    32    33   ar
    31    33    34    1
    32     6     1   ar
    33    33    28   ar
    34    11     7   ar
    35    22    17    1
    36    23    19    1
    37    26    27    1
    38    12    13    1
@<TRIPOS>MOLECULE
*****
 34 38 0 0 0
SMALL
GASTEIGER

@<TRIPOS>ATOM
      1 C         138.8304  142.8614  162.0602 C.ar    1  UNL1        0.0505
      2 C         137.9200  141.6800  162.2199 C.ar    1  UNL1        0.0148
      3 C         137.9069  140.9118  163.5081 C.ar    1  UNL1        0.0060
      4 C         138.8044  141.3250  164.6368 C.ar    1  UNL1        0.0553
      5 C         139.7148  142.5064  164.4772 C.ar    1  UNL1        0.0060
      6 C         139.7278  143.2746  163.1889 C.ar    1  UNL1        0.0148
      7 C         138.7913  140.5568  165.9251 C.ar    1  UNL1        0.2512
      8 N         138.0415  139.2839  166.1851 N.ar    1  UNL1       -0.1058
      9 N         138.3126  138.8671  167.6003 N.ar    1  UNL1       -0.0923
     10 C         139.2299  139.8823  168.2149 C.ar    1  UNL1        0.3086
     11 O         139.5258  140.9266  167.1797 O.2     1  UNL1       -0.4048
     12 N         139.7585  139.8575  169.6185 N.pl3   1  UNL1       -0.2871
     13 H         139.9143  138.9970  170.0707 H       1  UNL1        0.1512
     14 C         140.0497  141.1438  170.3330 C.3     1  UNL1        0.0925
     15 C         141.4651  141.5145  170.6633 C.3     1  UNL1        0.0386
     16 C         142.6027  140.7668  170.0333 C.3     1  UNL1        0.0738
     17 N         142.7424  140.7327  168.5402 N.3     1  UNL1       -0.2739
     18 C         142.7571  139.5011  167.6839 C.3     1  UNL1        0.0720
     19 C         142.9157  139.9315  166.2557 C.3     1  UNL1        0.0174
     20 C         143.0652  141.1229  165.3567 C.3     1  UNL1        0.0028
     21 C         143.0506  142.3544  166.2130 C.3     1  UNL1        0.0160
     22 C         142.8920  141.9241  167.6412 C.3     1  UNL1        0.0575
     23 C         142.8086  140.4267  167.6676 C.3     1  UNL1        0.0173
     24 O         140.7395  142.0955  159.8765 O.2     1  UNL1       -0.2697
     25 C         139.7979  143.2466  159.6801 C.2     1  UNL1        0.2517
     26 N         138.8434  143.6295  160.7719 N.am    1  UNL1       -0.2803
     27 H         138.2254  144.3850  160.6430 H       1  UNL1        0.1552
     28 C         139.8110  144.0148  158.3917 C.ar    1  UNL1        0.0811
     29 C         139.1125  143.4649  157.1835 C.ar    1  UNL1        0.0068
     30 C         139.1255  144.2330  155.8952 C.ar    1  UNL1        0.0003
     31 C         139.8371  145.5510  155.8151 C.ar    1  UNL1        0.0023
     32 C         140.5356  146.1009  157.0232 C.ar    1  UNL1        0.0298
     33 C         140.5226  145.3328  158.3115 C.ar    1  UNL1        0.1445
     34 F         141.2211  145.8827  159.5197 F       1  UNL1       -0.2040
@<TRIPOS>BOND
     1    24    25    2
     2    25    26   am
     3    26     1    1
     4     1     2   ar
     5     2     3   ar
     6     3     4   ar
     7     4     7    1
     8     7     8   ar
     9     8     9   ar
    10     9    10   ar
    11    10    12    1
    12    12    14    1
    13    14    15    1
    14    15    16    1
    15    16    17    1
    16    17    18    1
    17    19    18    1
    18    19    20    1
    19    20    21    1
    20    22    21    1
    21    22    23    1
    22    10    11   ar
    23     4     5   ar
    24     5     6   ar
    25    25    28    1
    26    28    29   ar
    27    29    30   ar
    28    30    31   ar
    29    31    32   ar
    30    32    33   ar
    31    33    34    1
    32     6     1   ar
    33    33    28   ar
    34    11     7   ar
    35    22    17    1
    36    23    19    1
    37    26    27    1
    38    12    13    1
@<TRIPOS>MOLECULE
*****
 34 38 0 0 0
SMALL
GASTEIGER

@<TRIPOS>ATOM
      1 C         142.0532  138.3926  163.4745 C.ar    1  UNL1        0.0505
      2 C         143.4624  138.3485  162.9624 C.ar    1  UNL1        0.0148
      3 C         143.7234  138.3295  161.4855 C.ar    1  UNL1        0.0060
      4 C         142.5752  138.3546  160.5206 C.ar    1  UNL1        0.0553
      5 C         141.1660  138.3987  161.0327 C.ar    1  UNL1        0.0060
      6 C         140.9050  138.4177  162.5096 C.ar    1  UNL1        0.0148
      7 C         142.8362  138.3356  159.0435 C.ar    1  UNL1        0.2512
      8 N         143.7673  139.2475  158.3010 N.ar    1  UNL1       -0.1058
      9 N         143.7185  138.8769  156.8483 N.ar    1  UNL1       -0.0923
     10 C         142.7573  137.7359  156.6931 C.ar    1  UNL1        0.3086
     11 O         142.2120  137.4013  158.0498 O.2     1  UNL1       -0.4048
     12 N         142.4035  137.0499  155.4070 N.pl3   1  UNL1       -0.2871
     13 H         141.6017  137.3254  154.9065 H       1  UNL1        0.1512
     14 C         143.2712  135.9441  154.8834 C.3     1  UNL1        0.0925
     15 C         142.6701  134.6087  154.5586 C.3     1  UNL1        0.0386
     16 C         142.0509  133.7806  155.6454 C.3     1  UNL1        0.0738
     17 N         142.8817  132.7778  156.3897 N.3     1  UNL1       -0.2739
     18 C         142.5977  131.3093  156.5050 C.3     1  UNL1        0.0720
     19 C         143.6829  130.6913  157.3360 C.3     1  UNL1        0.0174
     20 C         144.9434  130.9807  158.0958 C.3     1  UNL1        0.0028
     21 C         145.2273  132.4490  157.9805 C.3     1  UNL1        0.0160
     22 C         144.1422  133.0671  157.1495 C.3     1  UNL1        0.0575
     23 C         143.1877  131.9808  156.7512 C.3     1  UNL1        0.0173
     24 O         141.9280  141.0061  164.9421 O.2     1  UNL1       -0.2697
     25 C         141.7297  139.7184  165.6853 C.2     1  UNL1        0.2517
     26 N         141.7922  138.4116  164.9515 N.am    1  UNL1       -0.2803
     27 H         141.6620  137.5664  165.4393 H       1  UNL1        0.1552
     28 C         141.4687  139.7374  167.1624 C.ar    1  UNL1        0.0811
     29 C         142.5675  139.3904  168.1227 C.ar    1  UNL1        0.0068
     30 C         142.3065  139.4095  169.5997 C.ar    1  UNL1        0.0003
     31 C         140.9467  139.7756  170.1163 C.ar    1  UNL1        0.0023
     32 C         139.8480  140.1226  169.1560 C.ar    1  UNL1        0.0298
     33 C         140.1089  140.1036  167.6790 C.ar    1  UNL1        0.1445
     34 F         139.0101  140.4506  166.7187 F       1  UNL1       -0.2040
@<TRIPOS>BOND
     1    24    25    2
     2    25    26   am
     3    26     1    1
     4     1     2   ar
     5     2     3   ar
     6     3     4   ar
     7     4     7    1
     8     7     8   ar
     9     8     9   ar
    10     9    10   ar
    11    10    12    1
    12    12    14    1
    13    14    15    1
    14    15    16    1
    15    16    17    1
    16    17    18    1
    17    19    18    1
    18    19    20    1
    19    20    21    1
    20    22    21    1
    21    22    23    1
    22    10    11   ar
    23     4     5   ar
    24     5     6   ar
    25    25    28    1
    26    28    29   ar
    27    29    30   ar
    28    30    31   ar
    29    31    32   ar
    30    32    33   ar
    31    33    34    1
    32     6     1   ar
    33    33    28   ar
    34    11     7   ar
    35    22    17    1
    36    23    19    1
    37    26    27    1
    38    12    13    1
@<TRIPOS>MOLECULE
*****
 34 38 0 0 0
SMALL
GASTEIGER

@<TRIPOS>ATOM
      1 C         141.0721  145.2326  158.7883 C.ar    1  UNL1        0.0505
      2 C         140.3202  145.5738  160.0407 C.ar    1  UNL1        0.0148
      3 C         140.3128  144.6164  161.1953 C.ar    1  UNL1        0.0060
      4 C         141.0573  143.3178  161.0976 C.ar    1  UNL1        0.0553
      5 C         141.8091  142.9767  159.8453 C.ar    1  UNL1        0.0060
      6 C         141.8165  143.9341  158.6907 C.ar    1  UNL1        0.0148
      7 C         141.0499  142.3604  162.2524 C.ar    1  UNL1        0.2512
      8 N         140.4645  142.6196  163.6089 N.ar    1  UNL1       -0.1058
      9 N         140.6794  141.3951  164.4482 N.ar    1  UNL1       -0.0923
     10 C         141.3977  140.3792  163.6104 C.ar    1  UNL1        0.3086
     11 O         141.6267  140.9757  162.2534 O.2     1  UNL1       -0.4048
     12 N         141.8139  139.0075  164.0522 N.pl3   1  UNL1       -0.2871
     13 H         141.1730  138.2613  164.0103 H       1  UNL1        0.1512
     14 C         143.2065  138.7727  164.5576 C.3     1  UNL1        0.0925
     15 C         144.3837  139.2618  163.7672 C.3     1  UNL1        0.0386
     16 C         145.2022  140.4119  164.2746 C.3     1  UNL1        0.0738
     17 N         144.7039  141.8171  164.1105 N.3     1  UNL1       -0.2739
     18 C         144.0605  142.6546  165.1759 C.3     1  UNL1        0.0720
     19 C         143.7204  143.9867  164.5760 C.3     1  UNL1        0.0174
     20 C         143.7779  144.8013  163.3177 C.3     1  UNL1        0.0028
     21 C         144.4211  143.9638  162.2524 C.3     1  UNL1        0.0160
     22 C         144.7613  142.6317  162.8523 C.3     1  UNL1        0.0575
     23 C         144.3282  142.6459  164.2883 C.3     1  UNL1        0.0173
     24 O         139.2068  144.8095  156.4771 O.2     1  UNL1       -0.2697
     25 C         140.1468  145.9785  156.4781 C.2     1  UNL1        0.2517
     26 N         141.0794  146.1901  157.6337 N.am    1  UNL1       -0.2803
     27 H         141.6963  146.9573  157.6343 H       1  UNL1        0.1552
     28 C         140.1541  146.9360  155.3233 C.ar    1  UNL1        0.0811
     29 C         140.9407  146.6143  154.0873 C.ar    1  UNL1        0.0068
     30 C         140.9480  147.5718  152.9326 C.ar    1  UNL1        0.0003
     31 C         140.1687  148.8508  153.0140 C.ar    1  UNL1        0.0023
     32 C         139.3821  149.1724  154.2500 C.ar    1  UNL1        0.0298
     33 C         139.3748  148.2151  155.4047 C.ar    1  UNL1        0.1445
     34 F         138.5881  148.5367  156.6407 F       1  UNL1       -0.2040
@<TRIPOS>BOND
     1    24    25    2
     2    25    26   am
     3    26     1    1
     4     1     2   ar
     5     2     3   ar
     6     3     4   ar
     7     4     7    1
     8     7     8   ar
     9     8     9   ar
    10     9    10   ar
    11    10    12    1
    12    12    14    1
    13    14    15    1
    14    15    16    1
    15    16    17    1
    16    17    18    1
    17    19    18    1
    18    19    20    1
    19    20    21    1
    20    22    21    1
    21    22    23    1
    22    10    11   ar
    23     4     5   ar
    24     5     6   ar
    25    25    28    1
    26    28    29   ar
    27    29    30   ar
    28    30    31   ar
    29    31    32   ar
    30    32    33   ar
    31    33    34    1
    32     6     1   ar
    33    33    28   ar
    34    11     7   ar
    35    22    17    1
    36    23    19    1
    37    26    27    1
    38    12    13    1
@<TRIPOS>MOLECULE
*****
 34 38 0 0 0
SMALL
GASTEIGER

@<TRIPOS>ATOM
      1 C         138.9547  140.3185  163.5064 C.ar    1  UNL1        0.0505
      2 C         138.7542  138.8808  163.1287 C.ar    1  UNL1        0.0148
      3 C         138.8204  138.4675  161.6884 C.ar    1  UNL1        0.0060
      4 C         139.0871  139.4919  160.6257 C.ar    1  UNL1        0.0553
      5 C         139.2877  140.9296  161.0034 C.ar    1  UNL1        0.0060
      6 C         139.2215  141.3430  162.4437 C.ar    1  UNL1        0.0148
      7 C         139.1533  139.0785  159.1852 C.ar    1  UNL1        0.2512
      8 N         138.5837  139.8370  158.0232 N.ar    1  UNL1       -0.1058
      9 N         138.8791  139.0614  156.7738 N.ar    1  UNL1       -0.0923
     10 C         139.6313  137.8236  157.1636 C.ar    1  UNL1        0.3086
     11 O         139.8008  137.8341  158.6539 O.2     1  UNL1       -0.4048
     12 N         140.1269  136.7616  156.2273 N.pl3   1  UNL1       -0.2871
     13 H         139.4897  136.1417  155.8045 H       1  UNL1        0.1512
     14 C         141.5935  136.6442  155.9354 C.3     1  UNL1        0.0925
     15 C         142.5913  136.7541  157.0500 C.3     1  UNL1        0.0386
     16 C         143.1812  138.0882  157.3997 C.3     1  UNL1        0.0738
     17 N         143.0317  138.6334  158.7891 N.3     1  UNL1       -0.2739
     18 C         143.0701  140.0820  159.1767 C.3     1  UNL1        0.0720
     19 C         142.8797  140.1696  160.6620 C.3     1  UNL1        0.0174
     20 C         142.6654  139.3620  161.9077 C.3     1  UNL1        0.0028
     21 C         142.6270  137.9135  161.5201 C.3     1  UNL1        0.0160
     22 C         142.8175  137.8258  160.0348 C.3     1  UNL1        0.0575
     23 C         142.9736  139.2202  159.5045 C.3     1  UNL1        0.0173
     24 O         141.4726  140.5293  165.1237 O.2     1  UNL1       -0.2697
     25 C         140.1475  140.8372  165.7555 C.2     1  UNL1        0.2517
     26 N         138.8885  140.7318  164.9468 N.am    1  UNL1       -0.2803
     27 H         138.0188  140.9339  165.3615 H       1  UNL1        0.1552
     28 C         140.0813  141.2505  167.1960 C.ar    1  UNL1        0.0811
     29 C         140.6949  142.5476  167.6330 C.ar    1  UNL1        0.0068
     30 C         140.6287  142.9608  169.0734 C.ar    1  UNL1        0.0003
     31 C         139.9490  142.0770  170.0767 C.ar    1  UNL1        0.0023
     32 C         139.3354  140.7799  169.6397 C.ar    1  UNL1        0.0298
     33 C         139.4015  140.3666  168.1993 C.ar    1  UNL1        0.1445
     34 F         138.7880  139.0696  167.7623 F       1  UNL1       -0.2040
@<TRIPOS>BOND
     1    24    25    2
     2    25    26   am
     3    26     1    1
     4     1     2   ar
     5     2     3   ar
     6     3     4   ar
     7     4     7    1
     8     7     8   ar
     9     8     9   ar
    10     9    10   ar
    11    10    12    1
    12    12    14    1
    13    14    15    1
    14    15    16    1
    15    16    17    1
    16    17    18    1
    17    19    18    1
    18    19    20    1
    19    20    21    1
    20    22    21    1
    21    22    23    1
    22    10    11   ar
    23     4     5   ar
    24     5     6   ar
    25    25    28    1
    26    28    29   ar
    27    29    30   ar
    28    30    31   ar
    29    31    32   ar
    30    32    33   ar
    31    33    34    1
    32     6     1   ar
    33    33    28   ar
    34    11     7   ar
    35    22    17    1
    36    23    19    1
    37    26    27    1
    38    12    13    1
@<TRIPOS>MOLECULE
*****
 34 38 0 0 0
SMALL
GASTEIGER

@<TRIPOS>ATOM
      1 C         141.3896  138.7750  161.9992 C.ar    1  UNL1        0.0505
      2 C         140.8096  140.0665  162.4949 C.ar    1  UNL1        0.0148
      3 C         140.0552  140.1014  163.7909 C.ar    1  UNL1        0.0060
      4 C         139.8809  138.8448  164.5912 C.ar    1  UNL1        0.0553
      5 C         140.4609  137.5534  164.0956 C.ar    1  UNL1        0.0060
      6 C         141.2152  137.5184  162.7996 C.ar    1  UNL1        0.0148
      7 C         139.1265  138.8797  165.8873 C.ar    1  UNL1        0.2512
      8 N         137.8357  138.1720  166.1755 N.ar    1  UNL1       -0.1058
      9 N         137.4419  138.4834  167.5890 N.ar    1  UNL1       -0.0923
     10 C         138.4893  139.3835  168.1744 C.ar    1  UNL1        0.3086
     11 O         139.5304  139.6285  167.1228 O.2     1  UNL1       -0.4048
     12 N         138.4947  139.9408  169.5670 N.pl3   1  UNL1       -0.2871
     13 H         137.7124  139.8136  170.1511 H       1  UNL1        0.1512
     14 C         139.6918  140.6919  170.0697 C.3     1  UNL1        0.0925
     15 C         141.0455  140.0460  170.0488 C.3     1  UNL1        0.0386
     16 C         142.2088  140.7624  169.4295 C.3     1  UNL1        0.0738
     17 N         142.6094  140.4602  168.0159 N.3     1  UNL1       -0.2739
     18 C         142.7374  141.4580  166.9032 C.3     1  UNL1        0.0720
     19 C         143.1595  140.7214  165.6665 C.3     1  UNL1        0.0174
     20 C         143.5025  139.3683  165.1175 C.3     1  UNL1        0.0028
     21 C         143.3746  138.3706  166.2302 C.3     1  UNL1        0.0160
     22 C         142.9525  139.1071  167.4669 C.3     1  UNL1        0.0575
     23 C         142.8195  140.5600  167.1185 C.3     1  UNL1        0.0173
     24 O         139.9181  138.3609  159.4179 O.2     1  UNL1       -0.2697
     25 C         141.4082  138.5331  159.4125 C.2     1  UNL1        0.2517
     26 N         142.1439  138.7402  160.7032 N.am    1  UNL1       -0.2803
     27 H         143.1219  138.8532  160.6996 H       1  UNL1        0.1552
     28 C         142.1625  138.4983  158.1164 C.ar    1  UNL1        0.0811
     29 C         142.1872  137.2424  157.2965 C.ar    1  UNL1        0.0068
     30 C         142.9415  137.2076  156.0005 C.ar    1  UNL1        0.0003
     31 C         143.6711  138.4286  155.5243 C.ar    1  UNL1        0.0023
     32 C         143.6464  139.6844  156.3442 C.ar    1  UNL1        0.0298
     33 C         142.8921  139.7193  157.6402 C.ar    1  UNL1        0.1445
     34 F         142.8674  140.9752  158.4601 F       1  UNL1       -0.2040
@<TRIPOS>BOND
     1    24    25    2
     2    25    26   am
     3    26     1    1
     4     1     2   ar
     5     2     3   ar
     6     3     4   ar
     7     4     7    1
     8     7     8   ar
     9     8     9   ar
    10     9    10   ar
    11    10    12    1
    12    12    14    1
    13    14    15    1
    14    15    16    1
    15    16    17    1
    16    17    18    1
    17    19    18    1
    18    19    20    1
    19    20    21    1
    20    22    21    1
    21    22    23    1
    22    10    11   ar
    23     4     5   ar
    24     5     6   ar
    25    25    28    1
    26    28    29   ar
    27    29    30   ar
    28    30    31   ar
    29    31    32   ar
    30    32    33   ar
    31    33    34    1
    32     6     1   ar
    33    33    28   ar
    34    11     7   ar
    35    22    17    1
    36    23    19    1
    37    26    27    1
    38    12    13    1
@<TRIPOS>MOLECULE
*****
 34 38 0 0 0
SMALL
GASTEIGER

@<TRIPOS>ATOM
      1 C         144.0663  142.8672  158.1931 C.ar    1  UNL1        0.0505
      2 C         143.0280  143.9274  157.9743 C.ar    1  UNL1        0.0148
      3 C         141.7257  143.8662  158.7159 C.ar    1  UNL1        0.0060
      4 C         141.4616  142.7448  159.6765 C.ar    1  UNL1        0.0553
      5 C         142.4999  141.6846  159.8953 C.ar    1  UNL1        0.0060
      6 C         143.8022  141.7458  159.1537 C.ar    1  UNL1        0.0148
      7 C         140.1592  142.6836  160.4183 C.ar    1  UNL1        0.2512
      8 N         138.8617  143.2903  159.9730 N.ar    1  UNL1       -0.1058
      9 N         137.8263  142.9866  161.0150 N.ar    1  UNL1       -0.0923
     10 C         138.4839  142.1922  162.1042 C.ar    1  UNL1        0.3086
     11 O         139.9257  142.0049  161.7354 O.2     1  UNL1       -0.4048
     12 N         137.8169  141.6757  163.3444 N.pl3   1  UNL1       -0.2871
     13 H         137.3188  140.8269  163.3184 H       1  UNL1        0.1512
     14 C         137.9086  142.4525  164.6243 C.3     1  UNL1        0.0925
     15 C         137.7913  143.9478  164.6042 C.3     1  UNL1        0.0386
     16 C         138.9762  144.7978  164.9557 C.3     1  UNL1        0.0738
     17 N         140.2805  144.5983  164.2421 N.3     1  UNL1       -0.2739
     18 C         140.7486  145.3530  163.0332 C.3     1  UNL1        0.0720
     19 C         142.1031  144.8301  162.6562 C.3     1  UNL1        0.0174
     20 C         143.1682  143.8408  163.0262 C.3     1  UNL1        0.0028
     21 C         142.7000  143.0861  164.2350 C.3     1  UNL1        0.0160
     22 C         141.3456  143.6090  164.6121 C.3     1  UNL1        0.0575
     23 C         140.9767  144.6868  163.6363 C.3     1  UNL1        0.0173
     24 O         144.1805  142.0943  155.2967 O.2     1  UNL1       -0.2697
     25 C         145.4257  142.5420  156.0031 C.2     1  UNL1        0.2517
     26 N         145.3686  142.9285  157.4514 N.am    1  UNL1       -0.2803
     27 H         146.1858  143.2224  157.9150 H       1  UNL1        0.1552
     28 C         146.7281  142.6033  155.2613 C.ar    1  UNL1        0.0811
     29 C         147.8762  141.7378  155.6888 C.ar    1  UNL1        0.0068
     30 C         149.1784  141.7991  154.9470 C.ar    1  UNL1        0.0003
     31 C         149.3326  142.7258  153.7777 C.ar    1  UNL1        0.0023
     32 C         148.1845  143.5913  153.3502 C.ar    1  UNL1        0.0298
     33 C         146.8823  143.5301  154.0920 C.ar    1  UNL1        0.1445
     34 F         145.7342  144.3956  153.6645 F       1  UNL1       -0.2040
@<TRIPOS>BOND
     1    24    25    2
     2    25    26   am
     3    26     1    1
     4     1     2   ar
     5     2     3   ar
     6     3     4   ar
     7     4     7    1
     8     7     8   ar
     9     8     9   ar
    10     9    10   ar
    11    10    12    1
    12    12    14    1
    13    14    15    1
    14    15    16    1
    15    16    17    1
    16    17    18    1
    17    19    18    1
    18    19    20    1
    19    20    21    1
    20    22    21    1
    21    22    23    1
    22    10    11   ar
    23     4     5   ar
    24     5     6   ar
    25    25    28    1
    26    28    29   ar
    27    29    30   ar
    28    30    31   ar
    29    31    32   ar
    30    32    33   ar
    31    33    34    1
    32     6     1   ar
    33    33    28   ar
    34    11     7   ar
    35    22    17    1
    36    23    19    1
    37    26    27    1
    38    12    13    1
@<TRIPOS>MOLECULE
*****
 34 38 0 0 0
SMALL
GASTEIGER

@<TRIPOS>ATOM
      1 C         142.4858  138.9427  169.8957 C.ar    1  UNL1        0.0505
      2 C         143.0069  139.0097  168.4908 C.ar    1  UNL1        0.0148
      3 C         142.1807  139.6482  167.4140 C.ar    1  UNL1        0.0060
      4 C         140.8332  140.2197  167.7422 C.ar    1  UNL1        0.0553
      5 C         140.3121  140.1527  169.1472 C.ar    1  UNL1        0.0060
      6 C         141.1383  139.5142  170.2239 C.ar    1  UNL1        0.0148
      7 C         140.0069  140.8583  166.6654 C.ar    1  UNL1        0.2512
      8 N         140.0377  142.3054  166.2717 N.ar    1  UNL1       -0.1058
      9 N         139.0546  142.5033  165.1562 N.ar    1  UNL1       -0.0923
     10 C         138.4162  141.1786  164.8606 C.ar    1  UNL1        0.3086
     11 O         139.0047  140.1619  165.7932 O.2     1  UNL1       -0.4048
     12 N         137.3724  140.9166  163.8156 N.pl3   1  UNL1       -0.2871
     13 H         136.5191  140.4947  164.0671 H       1  UNL1        0.1512
     14 C         137.6286  141.2973  162.3876 C.3     1  UNL1        0.0925
     15 C         137.5948  140.2498  161.3145 C.3     1  UNL1        0.0386
     16 C         138.8137  139.4207  161.0369 C.3     1  UNL1        0.0738
     17 N         139.6657  138.9362  162.1724 N.3     1  UNL1       -0.2739
     18 C         141.0332  139.4408  162.5265 C.3     1  UNL1        0.0720
     19 C         141.5123  138.6784  163.7262 C.3     1  UNL1        0.0174
     20 C         141.1464  137.6042  164.7070 C.3     1  UNL1        0.0028
     21 C         139.7788  137.0996  164.3530 C.3     1  UNL1        0.0160
     22 C         139.2997  137.8620  163.1533 C.3     1  UNL1        0.0575
     23 C         140.3711  138.8377  162.7659 C.3     1  UNL1        0.0173
     24 O         144.2755  136.6265  169.2382 O.2     1  UNL1       -0.2697
     25 C         144.2070  137.1460  170.6437 C.2     1  UNL1        0.2517
     26 N         143.3121  138.3041  170.9725 N.am    1  UNL1       -0.2803
     27 H         143.2672  138.6451  171.8949 H       1  UNL1        0.1552
     28 C         145.0334  136.5074  171.7205 C.ar    1  UNL1        0.0811
     29 C         145.8592  137.3602  172.6374 C.ar    1  UNL1        0.0068
     30 C         146.6855  136.7216  173.7141 C.ar    1  UNL1        0.0003
     31 C         146.6861  135.2302  173.8738 C.ar    1  UNL1        0.0023
     32 C         145.8603  134.3774  172.9569 C.ar    1  UNL1        0.0298
     33 C         145.0340  135.0159  171.8802 C.ar    1  UNL1        0.1445
     34 F         144.2082  134.1631  170.9633 F       1  UNL1       -0.2040
@<TRIPOS>BOND
     1    24    25    2
     2    25    26   am
     3    26     1    1
     4     1     2   ar
     5     2     3   ar
     6     3     4   ar
     7     4     7    1
     8     7     8   ar
     9     8     9   ar
    10     9    10   ar
    11    10    12    1
    12    12    14    1
    13    14    15    1
    14    15    16    1
    15    16    17    1
    16    17    18    1
    17    19    18    1
    18    19    20    1
    19    20    21    1
    20    22    21    1
    21    22    23    1
    22    10    11   ar
    23     4     5   ar
    24     5     6   ar
    25    25    28    1
    26    28    29   ar
    27    29    30   ar
    28    30    31   ar
    29    31    32   ar
    30    32    33   ar
    31    33    34    1
    32     6     1   ar
    33    33    28   ar
    34    11     7   ar
    35    22    17    1
    36    23    19    1
    37    26    27    1
    38    12    13    1
@<TRIPOS>MOLECULE
*****
 34 38 0 0 0
SMALL
GASTEIGER

@<TRIPOS>ATOM
      1 C         142.9767  138.8968  157.6433 C.ar    1  UNL1        0.0505
      2 C         142.8518  139.9986  156.6332 C.ar    1  UNL1        0.0148
      3 C         142.4898  141.3850  157.0764 C.ar    1  UNL1        0.0060
      4 C         142.2526  141.6697  158.5300 C.ar    1  UNL1        0.0553
      5 C         142.3775  140.5679  159.5401 C.ar    1  UNL1        0.0060
      6 C         142.7395  139.1815  159.0968 C.ar    1  UNL1        0.0148
      7 C         141.8905  143.0563  158.9733 C.ar    1  UNL1        0.2512
      8 N         142.6028  144.3191  158.5886 N.ar    1  UNL1       -0.1058
      9 N         141.9051  145.4666  159.2567 N.ar    1  UNL1       -0.0923
     10 C         140.7617  144.9130  160.0543 C.ar    1  UNL1        0.3086
     11 O         140.7527  143.4234  159.8792 O.2     1  UNL1       -0.4048
     12 N         139.7968  145.7094  160.8818 N.pl3   1  UNL1       -0.2871
     13 H         139.0940  146.2410  160.4429 H       1  UNL1        0.1512
     14 C         139.9026  145.6957  162.3779 C.3     1  UNL1        0.0925
     15 C         140.8402  144.7402  163.0548 C.3     1  UNL1        0.0386
     16 C         142.2556  145.1504  163.3352 C.3     1  UNL1        0.0738
     17 N         143.3298  144.1095  163.4475 N.3     1  UNL1       -0.2739
     18 C         144.0316  143.6991  164.7081 C.3     1  UNL1        0.0720
     19 C         145.0264  142.6322  164.3585 C.3     1  UNL1        0.0174
     20 C         145.5874  141.8189  163.2299 C.3     1  UNL1        0.0028
     21 C         144.8855  142.2292  161.9694 C.3     1  UNL1        0.0160
     22 C         143.8908  143.2962  162.3189 C.3     1  UNL1        0.0575
     23 C         143.9778  143.5452  163.7955 C.3     1  UNL1        0.0173
     24 O         140.8308  136.9976  156.7556 O.2     1  UNL1       -0.2697
     25 C         142.2658  136.5607  156.7561 C.2     1  UNL1        0.2517
     26 N         143.3387  137.5103  157.1999 N.am    1  UNL1       -0.2803
     27 H         144.2806  137.2236  157.2002 H       1  UNL1        0.1552
     28 C         142.6278  135.1741  156.3127 C.ar    1  UNL1        0.0811
     29 C         142.3830  134.7524  154.8942 C.ar    1  UNL1        0.0068
     30 C         142.7450  133.3659  154.4508 C.ar    1  UNL1        0.0003
     31 C         143.3518  132.4012  155.4259 C.ar    1  UNL1        0.0023
     32 C         143.5966  132.8229  156.8444 C.ar    1  UNL1        0.0298
     33 C         143.2347  134.2093  157.2878 C.ar    1  UNL1        0.1445
     34 F         143.4795  134.6310  158.7063 F       1  UNL1       -0.2040
@<TRIPOS>BOND
     1    24    25    2
     2    25    26   am
     3    26     1    1
     4     1     2   ar
     5     2     3   ar
     6     3     4   ar
     7     4     7    1
     8     7     8   ar
     9     8     9   ar
    10     9    10   ar
    11    10    12    1
    12    12    14    1
    13    14    15    1
    14    15    16    1
    15    16    17    1
    16    17    18    1
    17    19    18    1
    18    19    20    1
    19    20    21    1
    20    22    21    1
    21    22    23    1
    22    10    11   ar
    23     4     5   ar
    24     5     6   ar
    25    25    28    1
    26    28    29   ar
    27    29    30   ar
    28    30    31   ar
    29    31    32   ar
    30    32    33   ar
    31    33    34    1
    32     6     1   ar
    33    33    28   ar
    34    11     7   ar
    35    22    17    1
    36    23    19    1
    37    26    27    1
    38    12    13    1
