@<TRIPOS>MOLECULE
*****
 22 23 0 0 0
SMALL
GASTEIGER

@<TRIPOS>ATOM
      1 C         138.9928  140.4179  165.9661 C.2     1  UNL1        0.2254
      2 O         138.3823  141.1369  164.7998 O.2     1  UNL1       -0.2749
      3 N         139.8381  141.1693  166.9514 N.am    1  UNL1       -0.2756
      4 C         140.4486  140.4502  168.1178 C.3     1  UNL1        0.0927
      5 C         141.8134  139.8290  168.1542 C.3     1  UNL1        0.0383
      6 C         142.0098  139.2210  169.5114 C.3     1  UNL1        0.0704
      7 N         140.7662  139.4665  170.3136 N.3     1  UNL1       -0.2960
      8 C         139.8014  140.2262  169.4523 C.3     1  UNL1        0.0887
      9 H         140.9927  140.0129  171.1447 H       1  UNL1        0.1233
     10 C         139.6202  137.9556  165.4242 C.3     1  UNL1        0.0096
     11 C         138.7579  138.9475  166.1472 C.3     1  UNL1        0.0767
     12 C         137.6607  138.4689  167.0511 C.3     1  UNL1        0.0096
     13 C         140.0730  142.6397  166.7704 C.3     1  UNL1        0.1210
     14 C         141.0595  143.1214  165.7482 C.ar    1  UNL1        0.0091
     15 C         142.4646  142.5962  165.7563 C.ar    1  UNL1       -0.0009
     16 C         143.4511  143.0779  164.7342 C.ar    1  UNL1        0.0120
     17 C         143.0326  144.0847  163.7041 C.ar    1  UNL1        0.0690
     18 CL        144.0192  144.5664  162.6819 Cl      1  UNL1       -0.0813
     19 C         141.6276  144.6098  163.6960 C.ar    1  UNL1        0.0785
     20 CL        141.2091  145.6167  162.6658 Cl      1  UNL1       -0.0805
     21 C         140.6410  144.1282  164.7181 C.ar    1  UNL1        0.0667
     22 CL        139.2360  144.6533  164.7101 Cl      1  UNL1       -0.0816
@<TRIPOS>BOND
     1    10    11    1
     2    11    12    1
     3    11     1    1
     4     1     2    2
     5     1     3   am
     6     3    13    1
     7    13    14    1
     8    14    15   ar
     9    15    16   ar
    10    16    17   ar
    11    17    18    1
    12    17    19   ar
    13    19    20    1
    14    19    21   ar
    15    21    22    1
    16     4     3    1
    17     4     5    1
    18     5     6    1
    19     6     7    1
    20     7     8    1
    21    21    14   ar
    22     8     4    1
    23     7     9    1
@<TRIPOS>MOLECULE
*****
 22 23 0 0 0
SMALL
GASTEIGER

@<TRIPOS>ATOM
      1 C         140.8069  139.8399  169.0858 C.2     1  UNL1        0.2254
      2 O         139.6293  139.7762  170.0127 O.2     1  UNL1       -0.2749
      3 N         140.5912  139.9179  167.6034 N.am    1  UNL1       -0.2756
      4 C         141.7689  139.9816  166.6765 C.3     1  UNL1        0.0927
      5 C         142.5871  138.8145  166.2091 C.3     1  UNL1        0.0383
      6 C         143.6590  139.3351  165.2980 C.3     1  UNL1        0.0704
      7 N         143.5032  140.8240  165.2024 N.3     1  UNL1       -0.2960
      8 C         142.3351  141.2235  166.0543 C.3     1  UNL1        0.0887
      9 H         143.3328  141.0926  164.2332 H       1  UNL1        0.1233
     10 C         142.8333  138.5271  170.0450 C.3     1  UNL1        0.0096
     11 C         142.2002  139.8256  169.6412 C.3     1  UNL1        0.0767
     12 C         142.9604  141.1097  169.7929 C.3     1  UNL1        0.0096
     13 C         139.1980  139.9322  167.0479 C.3     1  UNL1        0.1210
     14 C         138.9481  139.4862  165.6377 C.ar    1  UNL1        0.0091
     15 C         139.1141  138.0421  165.2673 C.ar    1  UNL1       -0.0009
     16 C         138.8643  137.5960  163.8572 C.ar    1  UNL1        0.0120
     17 C         138.4485  138.5940  162.8174 C.ar    1  UNL1        0.0690
     18 CL        138.1987  138.1479  161.4072 Cl      1  UNL1       -0.0813
     19 C         138.2826  140.0380  163.1878 C.ar    1  UNL1        0.0785
     20 CL        137.8668  141.0360  162.1479 Cl      1  UNL1       -0.0805
     21 C         138.5324  140.4841  164.5979 C.ar    1  UNL1        0.0667
     22 CL        138.3664  141.9282  164.9683 Cl      1  UNL1       -0.0816
@<TRIPOS>BOND
     1    10    11    1
     2    11    12    1
     3    11     1    1
     4     1     2    2
     5     1     3   am
     6     3    13    1
     7    13    14    1
     8    14    15   ar
     9    15    16   ar
    10    16    17   ar
    11    17    18    1
    12    17    19   ar
    13    19    20    1
    14    19    21   ar
    15    21    22    1
    16     4     3    1
    17     4     5    1
    18     5     6    1
    19     6     7    1
    20     7     8    1
    21    21    14   ar
    22     8     4    1
    23     7     9    1
@<TRIPOS>MOLECULE
*****
 22 23 0 0 0
SMALL
GASTEIGER

@<TRIPOS>ATOM
      1 C         140.3464  140.0119  168.8419 C.2     1  UNL1        0.2254
      2 O         139.1550  139.9225  169.7488 O.2     1  UNL1       -0.2749
      3 N         140.1745  139.8553  167.3601 N.am    1  UNL1       -0.2756
      4 C         141.3660  139.9447  166.4532 C.3     1  UNL1        0.0927
      5 C         142.2299  138.7986  166.0171 C.3     1  UNL1        0.0383
      6 C         143.3007  139.3414  165.1176 C.3     1  UNL1        0.0704
      7 N         143.0984  140.8229  164.9978 N.3     1  UNL1       -0.2960
      8 C         141.9027  141.1957  165.8232 C.3     1  UNL1        0.0887
      9 H         142.9368  141.0724  164.0221 H       1  UNL1        0.1233
     10 C         142.5479  139.1033  169.8802 C.3     1  UNL1        0.0096
     11 C         141.7099  140.2579  169.4169 C.3     1  UNL1        0.0767
     12 C         142.2353  141.6584  169.5285 C.3     1  UNL1        0.0096
     13 C         138.8111  139.6094  166.7851 C.3     1  UNL1        0.1210
     14 C         138.5445  139.8976  165.3373 C.ar    1  UNL1        0.0091
     15 C         138.1731  141.2850  164.9048 C.ar    1  UNL1       -0.0009
     16 C         137.9066  141.5732  163.4572 C.ar    1  UNL1        0.0120
     17 C         138.0113  140.4740  162.4420 C.ar    1  UNL1        0.0690
     18 CL        137.7448  140.7622  160.9942 Cl      1  UNL1       -0.0813
     19 C         138.3827  139.0865  162.8745 C.ar    1  UNL1        0.0785
     20 CL        138.4875  137.9873  161.8592 Cl      1  UNL1       -0.0805
     21 C         138.6493  138.7983  164.3221 C.ar    1  UNL1        0.0667
     22 CL        139.0207  137.4109  164.7546 Cl      1  UNL1       -0.0816
@<TRIPOS>BOND
     1    10    11    1
     2    11    12    1
     3    11     1    1
     4     1     2    2
     5     1     3   am
     6     3    13    1
     7    13    14    1
     8    14    15   ar
     9    15    16   ar
    10    16    17   ar
    11    17    18    1
    12    17    19   ar
    13    19    20    1
    14    19    21   ar
    15    21    22    1
    16     4     3    1
    17     4     5    1
    18     5     6    1
    19     6     7    1
    20     7     8    1
    21    21    14   ar
    22     8     4    1
    23     7     9    1
@<TRIPOS>MOLECULE
*****
 22 23 0 0 0
SMALL
GASTEIGER

@<TRIPOS>ATOM
      1 C         142.3892  139.4900  168.9955 C.2     1  UNL1        0.2254
      2 O         143.0947  138.3471  169.6634 O.2     1  UNL1       -0.2749
      3 N         142.4503  139.6407  167.5044 N.am    1  UNL1       -0.2756
      4 C         141.7447  140.7836  166.8366 C.3     1  UNL1        0.0927
      5 C         140.2953  140.8212  166.4520 C.3     1  UNL1        0.0383
      6 C         140.0194  142.1504  165.8138 C.3     1  UNL1        0.0704
      7 N         141.2983  142.9342  165.8040 N.3     1  UNL1       -0.2960
      8 C         142.3646  142.0895  166.4361 C.3     1  UNL1        0.0887
      9 H         141.1797  143.7968  166.3354 H       1  UNL1        0.1233
     10 C         142.2939  141.7329  170.3033 C.3     1  UNL1        0.0096
     11 C         141.6224  140.4821  169.8189 C.3     1  UNL1        0.0767
     12 C         140.1843  140.2234  170.1577 C.3     1  UNL1        0.0096
     13 C         143.2170  138.6486  166.6811 C.3     1  UNL1        0.1210
     14 C         142.8635  138.4387  165.2385 C.ar    1  UNL1        0.0091
     15 C         141.6543  137.6300  164.8726 C.ar    1  UNL1       -0.0009
     16 C         141.3008  137.4200  163.4301 C.ar    1  UNL1        0.0120
     17 C         142.1565  138.0187  162.3534 C.ar    1  UNL1        0.0690
     18 CL        141.8030  137.8087  160.9108 Cl      1  UNL1       -0.0813
     19 C         143.3657  138.8274  162.7193 C.ar    1  UNL1        0.0785
     20 CL        144.2215  139.4261  161.6425 Cl      1  UNL1       -0.0805
     21 C         143.7192  139.0373  164.1618 C.ar    1  UNL1        0.0667
     22 CL        144.9285  139.8460  164.5276 Cl      1  UNL1       -0.0816
@<TRIPOS>BOND
     1    10    11    1
     2    11    12    1
     3    11     1    1
     4     1     2    2
     5     1     3   am
     6     3    13    1
     7    13    14    1
     8    14    15   ar
     9    15    16   ar
    10    16    17   ar
    11    17    18    1
    12    17    19   ar
    13    19    20    1
    14    19    21   ar
    15    21    22    1
    16     4     3    1
    17     4     5    1
    18     5     6    1
    19     6     7    1
    20     7     8    1
    21    21    14   ar
    22     8     4    1
    23     7     9    1
@<TRIPOS>MOLECULE
*****
 22 23 0 0 0
SMALL
GASTEIGER

@<TRIPOS>ATOM
      1 C         141.7029  140.4002  168.5041 C.2     1  UNL1        0.2254
      2 O         142.9478  140.0956  169.2835 O.2     1  UNL1       -0.2749
      3 N         141.5018  139.7962  167.1459 N.am    1  UNL1       -0.2756
      4 C         140.2568  140.1008  166.3665 C.3     1  UNL1        0.0927
      5 C         140.0527  141.2740  165.4544 C.3     1  UNL1        0.0383
      6 C         138.6671  141.1841  164.8866 C.3     1  UNL1        0.0704
      7 N         138.0151  139.9553  165.4478 N.3     1  UNL1       -0.2960
      8 C         138.9976  139.2858  166.3625 C.3     1  UNL1        0.0887
      9 H         137.7604  139.3217  164.6901 H       1  UNL1        0.1233
     10 C         139.5067  140.7334  169.8515 C.3     1  UNL1        0.0096
     11 C         140.6591  141.3088  169.0829 C.3     1  UNL1        0.0767
     12 C         140.7679  142.7928  168.8932 C.3     1  UNL1        0.0096
     13 C         142.5455  138.8876  166.5671 C.3     1  UNL1        0.1210
     14 C         142.9691  139.0472  165.1369 C.ar    1  UNL1        0.0091
     15 C         144.0323  140.0418  164.7762 C.ar    1  UNL1       -0.0009
     16 C         144.4560  140.2014  163.3461 C.ar    1  UNL1        0.0120
     17 C         143.8164  139.3662  162.2769 C.ar    1  UNL1        0.0690
     18 CL        144.2400  139.5257  160.8467 Cl      1  UNL1       -0.0813
     19 C         142.7531  138.3715  162.6376 C.ar    1  UNL1        0.0785
     20 CL        142.1135  137.5364  161.5683 Cl      1  UNL1       -0.0805
     21 C         142.3295  138.2120  164.0677 C.ar    1  UNL1        0.0667
     22 CL        141.2663  137.2173  164.4284 Cl      1  UNL1       -0.0816
@<TRIPOS>BOND
     1    10    11    1
     2    11    12    1
     3    11     1    1
     4     1     2    2
     5     1     3   am
     6     3    13    1
     7    13    14    1
     8    14    15   ar
     9    15    16   ar
    10    16    17   ar
    11    17    18    1
    12    17    19   ar
    13    19    20    1
    14    19    21   ar
    15    21    22    1
    16     4     3    1
    17     4     5    1
    18     5     6    1
    19     6     7    1
    20     7     8    1
    21    21    14   ar
    22     8     4    1
    23     7     9    1
@<TRIPOS>MOLECULE
*****
 22 23 0 0 0
SMALL
GASTEIGER

@<TRIPOS>ATOM
      1 C         142.2001  141.1538  167.4863 C.2     1  UNL1        0.2254
      2 O         143.2090  142.2589  167.5897 O.2     1  UNL1       -0.2749
      3 N         140.8258  141.4399  166.9577 N.am    1  UNL1       -0.2756
      4 C         139.8168  140.3347  166.8543 C.3     1  UNL1        0.0927
      5 C         139.4934  139.5490  165.6181 C.3     1  UNL1        0.0383
      6 C         138.4309  138.5499  165.9687 C.3     1  UNL1        0.0704
      7 N         138.0976  138.7182  167.4215 N.3     1  UNL1       -0.2960
      8 C         138.9542  139.8213  167.9688 C.3     1  UNL1        0.0887
      9 H         138.2881  137.8507  167.9231 H       1  UNL1        0.1233
     10 C         142.3638  139.3360  169.3353 C.3     1  UNL1        0.0096
     11 C         142.5654  139.7624  167.9114 C.3     1  UNL1        0.0767
     12 C         143.1324  138.7975  166.9127 C.3     1  UNL1        0.0096
     13 C         140.4604  142.8312  166.5325 C.3     1  UNL1        0.1210
     14 C         140.7483  143.2878  165.1329 C.ar    1  UNL1        0.0091
     15 C         141.8952  142.6927  164.3710 C.ar    1  UNL1       -0.0009
     16 C         142.1831  143.1492  162.9715 C.ar    1  UNL1        0.0120
     17 C         141.3242  144.2007  162.3340 C.ar    1  UNL1        0.0690
     18 CL        141.6121  144.6573  160.9344 Cl      1  UNL1       -0.0813
     19 C         140.1774  144.7958  163.0959 C.ar    1  UNL1        0.0785
     20 CL        139.3184  145.8474  162.4584 Cl      1  UNL1       -0.0805
     21 C         139.8894  144.3393  164.4954 C.ar    1  UNL1        0.0667
     22 CL        138.7426  144.9344  165.2574 Cl      1  UNL1       -0.0816
@<TRIPOS>BOND
     1    10    11    1
     2    11    12    1
     3    11     1    1
     4     1     2    2
     5     1     3   am
     6     3    13    1
     7    13    14    1
     8    14    15   ar
     9    15    16   ar
    10    16    17   ar
    11    17    18    1
    12    17    19   ar
    13    19    20    1
    14    19    21   ar
    15    21    22    1
    16     4     3    1
    17     4     5    1
    18     5     6    1
    19     6     7    1
    20     7     8    1
    21    21    14   ar
    22     8     4    1
    23     7     9    1
@<TRIPOS>MOLECULE
*****
 22 23 0 0 0
SMALL
GASTEIGER

@<TRIPOS>ATOM
      1 C         139.4609  139.9245  166.7216 C.2     1  UNL1        0.2254
      2 O         140.2055  139.9474  168.0235 O.2     1  UNL1       -0.2749
      3 N         139.4138  141.1535  165.8629 N.am    1  UNL1       -0.2756
      4 C         138.6692  141.1307  164.5609 C.3     1  UNL1        0.0927
      5 C         139.2358  140.7403  163.2280 C.3     1  UNL1        0.0383
      6 C         138.1440  140.8625  162.2066 C.3     1  UNL1        0.0704
      7 N         136.9028  141.3284  162.9083 N.3     1  UNL1       -0.2960
      8 C         137.2274  141.4941  164.3633 C.3     1  UNL1        0.0887
      9 H         136.1613  140.6371  162.7956 H       1  UNL1        0.1233
     10 C         137.4805  138.2564  166.9348 C.3     1  UNL1        0.0096
     11 C         138.7634  138.6727  166.2783 C.3     1  UNL1        0.0767
     12 C         139.3488  137.8372  165.1787 C.3     1  UNL1        0.0096
     13 C         140.1113  142.4053  166.3061 C.3     1  UNL1        0.1210
     14 C         141.1438  143.0413  165.4232 C.ar    1  UNL1        0.0091
     15 C         140.7695  144.1977  164.5442 C.ar    1  UNL1       -0.0009
     16 C         141.8020  144.8337  163.6614 C.ar    1  UNL1        0.0120
     17 C         143.2088  144.3133  163.6575 C.ar    1  UNL1        0.0690
     18 CL        144.2413  144.9494  162.7746 Cl      1  UNL1       -0.0813
     19 C         143.5831  143.1569  164.5365 C.ar    1  UNL1        0.0785
     20 CL        144.9900  142.6365  164.5326 Cl      1  UNL1       -0.0805
     21 C         142.5506  142.5209  165.4194 C.ar    1  UNL1        0.0667
     22 CL        142.9250  141.3645  166.2983 Cl      1  UNL1       -0.0816
@<TRIPOS>BOND
     1    10    11    1
     2    11    12    1
     3    11     1    1
     4     1     2    2
     5     1     3   am
     6     3    13    1
     7    13    14    1
     8    14    15   ar
     9    15    16   ar
    10    16    17   ar
    11    17    18    1
    12    17    19   ar
    13    19    20    1
    14    19    21   ar
    15    21    22    1
    16     4     3    1
    17     4     5    1
    18     5     6    1
    19     6     7    1
    20     7     8    1
    21    21    14   ar
    22     8     4    1
    23     7     9    1
@<TRIPOS>MOLECULE
*****
 22 23 0 0 0
SMALL
GASTEIGER

@<TRIPOS>ATOM
      1 C         141.0653  142.9146  163.0738 C.2     1  UNL1        0.2254
      2 O         139.5718  142.8475  163.1963 O.2     1  UNL1       -0.2749
      3 N         141.9000  141.7143  163.4091 N.am    1  UNL1       -0.2756
      4 C         143.3935  141.7814  163.2867 C.3     1  UNL1        0.0927
      5 C         144.3682  141.8692  164.4234 C.3     1  UNL1        0.0383
      6 C         145.7517  141.9146  163.8453 C.3     1  UNL1        0.0704
      7 N         145.6318  141.8548  162.3512 N.3     1  UNL1       -0.2960
      8 C         144.1744  141.7725  162.0060 C.3     1  UNL1        0.0887
      9 H         146.1184  141.0310  161.9976 H       1  UNL1        0.1233
     10 C         141.8257  144.4877  161.1510 C.3     1  UNL1        0.0096
     11 C         141.7241  144.1821  162.6160 C.3     1  UNL1        0.0767
     12 C         142.2813  145.1439  163.6232 C.3     1  UNL1        0.0096
     13 C         141.2412  140.4468  163.8669 C.3     1  UNL1        0.1210
     14 C         140.6647  140.3580  165.2489 C.ar    1  UNL1        0.0091
     15 C         141.3077  141.1055  166.3793 C.ar    1  UNL1       -0.0009
     16 C         140.7313  141.0167  167.7612 C.ar    1  UNL1        0.0120
     17 C         139.5117  140.1804  168.0127 C.ar    1  UNL1        0.0690
     18 CL        138.9352  140.0916  169.3947 Cl      1  UNL1       -0.0813
     19 C         138.8687  139.4329  166.8824 C.ar    1  UNL1        0.0785
     20 CL        137.6491  138.5966  167.1340 Cl      1  UNL1       -0.0805
     21 C         139.4452  139.5217  165.5005 C.ar    1  UNL1        0.0667
     22 CL        138.8021  138.7742  164.3701 Cl      1  UNL1       -0.0816
@<TRIPOS>BOND
     1    10    11    1
     2    11    12    1
     3    11     1    1
     4     1     2    2
     5     1     3   am
     6     3    13    1
     7    13    14    1
     8    14    15   ar
     9    15    16   ar
    10    16    17   ar
    11    17    18    1
    12    17    19   ar
    13    19    20    1
    14    19    21   ar
    15    21    22    1
    16     4     3    1
    17     4     5    1
    18     5     6    1
    19     6     7    1
    20     7     8    1
    21    21    14   ar
    22     8     4    1
    23     7     9    1
@<TRIPOS>MOLECULE
*****
 22 23 0 0 0
SMALL
GASTEIGER

@<TRIPOS>ATOM
      1 C         140.1915  139.3440  164.0594 C.2     1  UNL1        0.2254
      2 O         138.7616  139.5852  164.4431 O.2     1  UNL1       -0.2749
      3 N         141.2597  140.2957  164.5101 N.am    1  UNL1       -0.2756
      4 C         142.6896  140.0545  164.1263 C.3     1  UNL1        0.0927
      5 C         143.7221  139.3599  164.9640 C.3     1  UNL1        0.0383
      6 C         145.0087  139.3416  164.1929 C.3     1  UNL1        0.0704
      7 N         144.7713  140.0249  162.8788 N.3     1  UNL1       -0.2960
      8 C         143.3381  140.4655  162.8377 C.3     1  UNL1        0.0887
      9 H         144.9563  139.3768  162.1133 H       1  UNL1        0.1233
     10 C         140.4140  138.2097  161.7326 C.3     1  UNL1        0.0096
     11 C         140.5531  138.1511  163.2250 C.3     1  UNL1        0.0767
     12 C         141.0539  136.8996  163.8830 C.3     1  UNL1        0.0096
     13 C         140.8981  141.4886  165.3444 C.3     1  UNL1        0.1210
     14 C         141.0637  141.4397  166.8345 C.ar    1  UNL1        0.0091
     15 C         139.9702  140.8759  167.6926 C.ar    1  UNL1       -0.0009
     16 C         140.1357  140.8270  169.1826 C.ar    1  UNL1        0.0120
     17 C         141.3949  141.3419  169.8145 C.ar    1  UNL1        0.0690
     18 CL        141.5605  141.2929  171.3046 Cl      1  UNL1       -0.0813
     19 C         142.4884  141.9057  168.9565 C.ar    1  UNL1        0.0785
     20 CL        143.7476  142.4206  169.5885 Cl      1  UNL1       -0.0805
     21 C         142.3229  141.9546  167.4665 C.ar    1  UNL1        0.0667
     22 CL        143.4164  142.5184  166.6084 Cl      1  UNL1       -0.0816
@<TRIPOS>BOND
     1    10    11    1
     2    11    12    1
     3    11     1    1
     4     1     2    2
     5     1     3   am
     6     3    13    1
     7    13    14    1
     8    14    15   ar
     9    15    16   ar
    10    16    17   ar
    11    17    18    1
    12    17    19   ar
    13    19    20    1
    14    19    21   ar
    15    21    22    1
    16     4     3    1
    17     4     5    1
    18     5     6    1
    19     6     7    1
    20     7     8    1
    21    21    14   ar
    22     8     4    1
    23     7     9    1
