@<TRIPOS>MOLECULE
*****
 34 37 0 0 0
SMALL
GASTEIGER

@<TRIPOS>ATOM
      1 N         138.9014  140.1731  165.6972 N.3     1  UNL1       -0.2691
      2 C         138.0775  140.9564  164.7186 C.3     1  UNL1        0.0724
      3 C         138.4963  142.3421  164.3256 C.3     1  UNL1        0.0188
      4 C         139.7391  142.9444  164.9110 C.3     1  UNL1        0.0188
      5 C         140.5630  142.1611  165.8895 C.3     1  UNL1        0.0188
      6 C         140.1442  140.7754  166.2826 C.3     1  UNL1        0.0724
      7 C         138.4826  138.7874  166.0902 C.3     1  UNL1        0.0987
      8 C         137.7519  138.5624  167.3808 C.2     1  UNL1        0.0652
      9 O         138.1881  139.2789  168.6243 O.co2   1  UNL1       -0.5478
     10 O         136.5850  137.6211  167.4278 O.co2   1  UNL1       -0.5478
     11 C         138.7945  137.6267  165.1928 C.3     1  UNL1        0.0477
     12 C         138.1011  138.0268  162.3015 C.3     1  UNL1        0.0307
     13 C         139.5380  137.9420  162.7234 C.ar    1  UNL1       -0.0257
     14 C         140.6283  138.0573  161.6997 C.ar    1  UNL1       -0.0046
     15 C         142.0652  137.9725  162.1215 C.ar    1  UNL1       -0.0003
     16 C         142.4120  137.7724  163.5671 C.ar    1  UNL1       -0.0003
     17 C         141.3217  137.6572  164.5908 C.ar    1  UNL1       -0.0045
     18 C         139.8848  137.7420  164.1689 C.ar    1  UNL1       -0.0244
     19 C         140.1579  144.3301  164.5180 C.3     1  UNL1        0.0721
     20 N         140.5128  144.6301  163.0917 N.3     1  UNL1       -0.2724
     21 C         139.6682  145.5772  162.2920 C.3     1  UNL1        0.0758
     22 C         140.0232  145.8772  160.8659 C.3     1  UNL1        0.0609
     23 C         141.2227  145.2301  160.2394 C.3     1  UNL1        0.1687
     24 C         142.0673  144.2830  161.0392 C.3     1  UNL1        0.0609
     25 C         141.7123  143.9830  162.4653 C.3     1  UNL1        0.0758
     26 O         141.5776  145.5302  158.8132 O.3     1  UNL1       -0.4790
     27 C         140.5478  145.3701  157.7344 C.ar    1  UNL1        0.1393
     28 C         139.9221  144.0293  157.4878 C.ar    1  UNL1        0.0378
     29 C         138.8923  143.8693  156.4090 C.ar    1  UNL1        0.0154
     30 C         138.4880  145.0501  155.5769 C.ar    1  UNL1        0.0684
     31 CL        137.4582  144.8900  154.4981 Cl      1  UNL1       -0.0814
     32 C         139.1137  146.3909  155.8235 C.ar    1  UNL1        0.0712
     33 CL        138.7096  147.5716  154.9914 Cl      1  UNL1       -0.0813
     34 C         140.1436  146.5509  156.9023 C.ar    1  UNL1        0.0491
@<TRIPOS>UNITY_ATOM_ATTR
9 1
charge -1
@<TRIPOS>BOND
     1    12    13    1
     2    13    14   ar
     3    14    15   ar
     4    15    16   ar
     5    16    17   ar
     6    17    18   ar
     7    18    11    1
     8     7    11    1
     9     7     8    1
    10     8     9   ar
    11     8    10   ar
    12     7     1    1
    13     1     2    1
    14     2     3    1
    15     3     4    1
    16     4    19    1
    17    19    20    1
    18    20    21    1
    19    21    22    1
    20    22    23    1
    21    23    26    1
    22    26    27    1
    23    27    28   ar
    24    28    29   ar
    25    29    30   ar
    26    30    31    1
    27    30    32   ar
    28    32    33    1
    29    32    34   ar
    30    23    24    1
    31    24    25    1
    32     4     5    1
    33     5     6    1
    34    18    13   ar
    35     6     1    1
    36    25    20    1
    37    34    27   ar
@<TRIPOS>MOLECULE
*****
 34 37 0 0 0
SMALL
GASTEIGER

@<TRIPOS>ATOM
      1 N         140.0157  142.1592  166.6362 N.3     1  UNL1       -0.2691
      2 C         139.7062  143.3622  165.7953 C.3     1  UNL1        0.0724
      3 C         138.7708  143.2415  164.6289 C.3     1  UNL1        0.0188
      4 C         138.1449  141.9177  164.3034 C.3     1  UNL1        0.0188
      5 C         138.4544  140.7147  165.1443 C.3     1  UNL1        0.0188
      6 C         139.3898  140.8355  166.3107 C.3     1  UNL1        0.0724
      7 C         140.9511  142.2800  167.8026 C.3     1  UNL1        0.0987
      8 C         140.4151  142.6201  169.1617 C.2     1  UNL1        0.0652
      9 O         140.0475  141.5249  170.1186 O.co2   1  UNL1       -0.5478
     10 O         140.2467  144.0552  169.5639 O.co2   1  UNL1       -0.5478
     11 C         142.4224  142.0606  167.6099 C.3     1  UNL1        0.0477
     12 C         143.4896  142.9881  164.9640 C.3     1  UNL1        0.0307
     13 C         143.4395  141.5227  165.2805 C.ar    1  UNL1       -0.0257
     14 C         143.9230  140.5211  164.2741 C.ar    1  UNL1       -0.0046
     15 C         143.8729  139.0557  164.5906 C.ar    1  UNL1       -0.0003
     16 C         143.3393  138.5920  165.9135 C.ar    1  UNL1       -0.0003
     17 C         142.8558  139.5936  166.9199 C.ar    1  UNL1       -0.0045
     18 C         142.9059  141.0590  166.6034 C.ar    1  UNL1       -0.0244
     19 C         137.2095  141.7969  163.1370 C.3     1  UNL1        0.0721
     20 N         137.7464  141.4648  161.7763 N.3     1  UNL1       -0.2724
     21 C         137.6485  140.0625  161.2531 C.3     1  UNL1        0.0758
     22 C         138.1855  139.7305  159.8924 C.3     1  UNL1        0.0609
     23 C         138.8203  140.8009  159.0550 C.3     1  UNL1        0.1687
     24 C         138.9182  142.2032  159.5782 C.3     1  UNL1        0.0609
     25 C         138.3812  142.5352  160.9388 C.3     1  UNL1        0.0758
     26 O         139.3572  140.4688  157.6942 O.3     1  UNL1       -0.4790
     27 C         140.3061  139.3199  157.5222 C.ar    1  UNL1        0.1393
     28 C         141.5426  139.2355  158.3672 C.ar    1  UNL1        0.0378
     29 C         142.4915  138.0866  158.1952 C.ar    1  UNL1        0.0154
     30 C         142.2039  137.0221  157.1782 C.ar    1  UNL1        0.0684
     31 CL        143.1528  135.8732  157.0062 Cl      1  UNL1       -0.0814
     32 C         140.9674  137.1065  156.3332 C.ar    1  UNL1        0.0712
     33 CL        140.6797  136.0421  155.3163 Cl      1  UNL1       -0.0813
     34 C         140.0185  138.2555  156.5053 C.ar    1  UNL1        0.0491
@<TRIPOS>UNITY_ATOM_ATTR
9 1
charge -1
@<TRIPOS>BOND
     1    12    13    1
     2    13    14   ar
     3    14    15   ar
     4    15    16   ar
     5    16    17   ar
     6    17    18   ar
     7    18    11    1
     8     7    11    1
     9     7     8    1
    10     8     9   ar
    11     8    10   ar
    12     7     1    1
    13     1     2    1
    14     2     3    1
    15     3     4    1
    16     4    19    1
    17    19    20    1
    18    20    21    1
    19    21    22    1
    20    22    23    1
    21    23    26    1
    22    26    27    1
    23    27    28   ar
    24    28    29   ar
    25    29    30   ar
    26    30    31    1
    27    30    32   ar
    28    32    33    1
    29    32    34   ar
    30    23    24    1
    31    24    25    1
    32     4     5    1
    33     5     6    1
    34    18    13   ar
    35     6     1    1
    36    25    20    1
    37    34    27   ar
@<TRIPOS>MOLECULE
*****
 34 37 0 0 0
SMALL
GASTEIGER

@<TRIPOS>ATOM
      1 N         140.9501  140.0116  166.2522 N.3     1  UNL1       -0.2691
      2 C         141.8748  138.8816  165.9085 C.3     1  UNL1        0.0724
      3 C         143.0756  139.1313  165.0449 C.3     1  UNL1        0.0188
      4 C         143.3517  140.5110  164.5251 C.3     1  UNL1        0.0188
      5 C         142.4270  141.6410  164.8688 C.3     1  UNL1        0.0188
      6 C         141.2262  141.3912  165.7324 C.3     1  UNL1        0.0724
      7 C         139.7493  139.7618  167.1157 C.3     1  UNL1        0.0987
      8 C         138.4649  139.2946  166.4974 C.2     1  UNL1        0.0652
      9 O         138.0874  139.7492  165.1187 O.co2   1  UNL1       -0.5478
     10 O         137.5582  138.3728  167.2578 O.co2   1  UNL1       -0.5478
     11 C         139.8328  139.9793  168.5975 C.3     1  UNL1        0.0477
     12 C         142.5800  139.1808  169.5003 C.3     1  UNL1        0.0307
     13 C         142.1430  140.6120  169.6039 C.ar    1  UNL1       -0.0257
     14 C         143.0795  141.6439  170.1589 C.ar    1  UNL1       -0.0046
     15 C         142.6424  143.0750  170.2625 C.ar    1  UNL1       -0.0003
     16 C         141.2688  143.4743  169.8111 C.ar    1  UNL1       -0.0003
     17 C         140.3323  142.4424  169.2561 C.ar    1  UNL1       -0.0045
     18 C         140.7694  141.0112  169.1525 C.ar    1  UNL1       -0.0244
     19 C         144.5525  140.7608  163.6616 C.3     1  UNL1        0.0721
     20 N         144.3848  140.9672  162.1853 N.3     1  UNL1       -0.2724
     21 C         144.0143  139.8115  161.3037 C.3     1  UNL1        0.0758
     22 C         143.8466  140.0179  159.8275 C.3     1  UNL1        0.0609
     23 C         144.0494  141.3800  159.2329 C.3     1  UNL1        0.1687
     24 C         144.4199  142.5357  160.1144 C.3     1  UNL1        0.0609
     25 C         144.5876  142.3292  161.5906 C.3     1  UNL1        0.0758
     26 O         143.8817  141.5864  157.7566 O.3     1  UNL1       -0.4790
     27 C         145.0887  141.7213  156.8763 C.ar    1  UNL1        0.1393
     28 C         146.3103  142.4298  157.3818 C.ar    1  UNL1        0.0378
     29 C         147.5173  142.5647  156.5015 C.ar    1  UNL1        0.0154
     30 C         147.5027  141.9910  155.1155 C.ar    1  UNL1        0.0684
     31 CL        148.7096  142.1259  154.2352 Cl      1  UNL1       -0.0814
     32 C         146.2810  141.2825  154.6100 C.ar    1  UNL1        0.0712
     33 CL        146.2663  140.7088  153.2241 Cl      1  UNL1       -0.0813
     34 C         145.0740  141.1476  155.4904 C.ar    1  UNL1        0.0491
@<TRIPOS>UNITY_ATOM_ATTR
9 1
charge -1
@<TRIPOS>BOND
     1    12    13    1
     2    13    14   ar
     3    14    15   ar
     4    15    16   ar
     5    16    17   ar
     6    17    18   ar
     7    18    11    1
     8     7    11    1
     9     7     8    1
    10     8     9   ar
    11     8    10   ar
    12     7     1    1
    13     1     2    1
    14     2     3    1
    15     3     4    1
    16     4    19    1
    17    19    20    1
    18    20    21    1
    19    21    22    1
    20    22    23    1
    21    23    26    1
    22    26    27    1
    23    27    28   ar
    24    28    29   ar
    25    29    30   ar
    26    30    31    1
    27    30    32   ar
    28    32    33    1
    29    32    34   ar
    30    23    24    1
    31    24    25    1
    32     4     5    1
    33     5     6    1
    34    18    13   ar
    35     6     1    1
    36    25    20    1
    37    34    27   ar
@<TRIPOS>MOLECULE
*****
 34 37 0 0 0
SMALL
GASTEIGER

@<TRIPOS>ATOM
      1 N         141.2830  140.1664  166.4941 N.3     1  UNL1       -0.2691
      2 C         142.1783  139.0338  166.0868 C.3     1  UNL1        0.0724
      3 C         143.3409  139.2878  165.1737 C.3     1  UNL1        0.0188
      4 C         143.6083  140.6745  164.6678 C.3     1  UNL1        0.0188
      5 C         142.7130  141.8070  165.0751 C.3     1  UNL1        0.0188
      6 C         141.5504  141.5530  165.9882 C.3     1  UNL1        0.0724
      7 C         140.1204  139.9124  167.4072 C.3     1  UNL1        0.0987
      8 C         140.2983  140.0117  168.8933 C.2     1  UNL1        0.0652
      9 O         141.6631  140.2415  169.4716 O.co2   1  UNL1       -0.5478
     10 O         139.1113  139.8812  169.8011 O.co2   1  UNL1       -0.5478
     11 C         138.7800  139.5590  166.8342 C.3     1  UNL1        0.0477
     12 C         138.0670  141.6294  164.7835 C.3     1  UNL1        0.0307
     13 C         138.3034  140.2087  164.3642 C.ar    1  UNL1       -0.0257
     14 C         138.1832  139.8232  162.9196 C.ar    1  UNL1       -0.0046
     15 C         138.4195  138.4025  162.5003 C.ar    1  UNL1       -0.0003
     16 C         138.7760  137.3673  163.5256 C.ar    1  UNL1       -0.0003
     17 C         138.8961  137.7528  164.9702 C.ar    1  UNL1       -0.0045
     18 C         138.6598  139.1735  165.3895 C.ar    1  UNL1       -0.0244
     19 C         144.7709  140.9285  163.7547 C.3     1  UNL1        0.0721
     20 N         144.5476  141.0725  162.2784 N.3     1  UNL1       -0.2724
     21 C         144.7733  142.3968  161.6113 C.3     1  UNL1        0.0758
     22 C         144.5500  142.5407  160.1351 C.3     1  UNL1        0.0609
     23 C         144.1010  141.3602  159.3259 C.3     1  UNL1        0.1687
     24 C         143.8753  140.0358  159.9930 C.3     1  UNL1        0.0609
     25 C         144.0986  139.8920  161.4692 C.3     1  UNL1        0.0758
     26 O         143.8777  141.5041  157.8495 O.3     1  UNL1       -0.4790
     27 C         145.0485  141.6685  156.9264 C.ar    1  UNL1        0.1393
     28 C         146.2687  142.4092  157.3873 C.ar    1  UNL1        0.0378
     29 C         147.4395  142.5735  156.4642 C.ar    1  UNL1        0.0154
     30 C         147.3901  141.9971  155.0801 C.ar    1  UNL1        0.0684
     31 CL        148.5609  142.1615  154.1570 Cl      1  UNL1       -0.0814
     32 C         146.1699  141.2565  154.6193 C.ar    1  UNL1        0.0712
     33 CL        146.1204  140.6801  153.2354 Cl      1  UNL1       -0.0813
     34 C         144.9990  141.0921  155.5425 C.ar    1  UNL1        0.0491
@<TRIPOS>UNITY_ATOM_ATTR
9 1
charge -1
@<TRIPOS>BOND
     1    12    13    1
     2    13    14   ar
     3    14    15   ar
     4    15    16   ar
     5    16    17   ar
     6    17    18   ar
     7    18    11    1
     8     7    11    1
     9     7     8    1
    10     8     9   ar
    11     8    10   ar
    12     7     1    1
    13     1     2    1
    14     2     3    1
    15     3     4    1
    16     4    19    1
    17    19    20    1
    18    20    21    1
    19    21    22    1
    20    22    23    1
    21    23    26    1
    22    26    27    1
    23    27    28   ar
    24    28    29   ar
    25    29    30   ar
    26    30    31    1
    27    30    32   ar
    28    32    33    1
    29    32    34   ar
    30    23    24    1
    31    24    25    1
    32     4     5    1
    33     5     6    1
    34    18    13   ar
    35     6     1    1
    36    25    20    1
    37    34    27   ar
@<TRIPOS>MOLECULE
*****
 34 37 0 0 0
SMALL
GASTEIGER

@<TRIPOS>ATOM
      1 N         142.4957  140.9645  166.1877 N.3     1  UNL1       -0.2691
      2 C         143.5369  142.0104  165.9193 C.3     1  UNL1        0.0724
      3 C         143.1728  143.2547  165.1648 C.3     1  UNL1        0.0188
      4 C         141.7676  143.4530  164.6788 C.3     1  UNL1        0.0188
      5 C         140.7265  142.4071  164.9473 C.3     1  UNL1        0.0188
      6 C         141.0906  141.1628  165.7018 C.3     1  UNL1        0.0724
      7 C         142.8598  139.7202  166.9422 C.3     1  UNL1        0.0987
      8 C         143.4426  138.5452  166.2143 C.2     1  UNL1        0.0652
      9 O         143.1523  138.3472  164.7560 O.co2   1  UNL1       -0.5478
     10 O         144.3156  137.5682  166.9446 O.co2   1  UNL1       -0.5478
     11 C         142.6411  139.6508  168.4245 C.3     1  UNL1        0.0477
     12 C         143.5908  142.3023  169.4578 C.3     1  UNL1        0.0307
     13 C         142.1490  141.9143  169.6013 C.ar    1  UNL1       -0.0257
     14 C         141.1821  142.8519  170.2615 C.ar    1  UNL1       -0.0046
     15 C         139.7403  142.4638  170.4050 C.ar    1  UNL1       -0.0003
     16 C         139.2654  141.1381  169.8883 C.ar    1  UNL1       -0.0003
     17 C         140.2323  140.2005  169.2282 C.ar    1  UNL1       -0.0045
     18 C         141.6741  140.5886  169.0847 C.ar    1  UNL1       -0.0244
     19 C         141.4035  144.6973  163.9244 C.3     1  UNL1        0.0721
     20 N         141.2658  144.6558  162.4312 N.3     1  UNL1       -0.2724
     21 C         140.3372  145.6075  161.7370 C.3     1  UNL1        0.0758
     22 C         140.1995  145.5660  160.2439 C.3     1  UNL1        0.0609
     23 C         140.9904  144.5727  159.4451 C.3     1  UNL1        0.1687
     24 C         141.9189  143.6210  160.1394 C.3     1  UNL1        0.0609
     25 C         142.0566  143.6626  161.6325 C.3     1  UNL1        0.0758
     26 O         140.8526  144.5312  157.9520 O.3     1  UNL1       -0.4790
     27 C         139.6148  143.9576  157.3287 C.ar    1  UNL1        0.1393
     28 C         138.9768  142.7341  157.9168 C.ar    1  UNL1        0.0378
     29 C         137.7389  142.1604  157.2935 C.ar    1  UNL1        0.0154
     30 C         137.1390  142.8103  156.0819 C.ar    1  UNL1        0.0684
     31 CL        135.9011  142.2367  155.4586 Cl      1  UNL1       -0.0814
     32 C         137.7770  144.0338  155.4937 C.ar    1  UNL1        0.0712
     33 CL        137.1772  144.6837  154.2822 Cl      1  UNL1       -0.0813
     34 C         139.0149  144.6075  156.1171 C.ar    1  UNL1        0.0491
@<TRIPOS>UNITY_ATOM_ATTR
9 1
charge -1
@<TRIPOS>BOND
     1    12    13    1
     2    13    14   ar
     3    14    15   ar
     4    15    16   ar
     5    16    17   ar
     6    17    18   ar
     7    18    11    1
     8     7    11    1
     9     7     8    1
    10     8     9   ar
    11     8    10   ar
    12     7     1    1
    13     1     2    1
    14     2     3    1
    15     3     4    1
    16     4    19    1
    17    19    20    1
    18    20    21    1
    19    21    22    1
    20    22    23    1
    21    23    26    1
    22    26    27    1
    23    27    28   ar
    24    28    29   ar
    25    29    30   ar
    26    30    31    1
    27    30    32   ar
    28    32    33    1
    29    32    34   ar
    30    23    24    1
    31    24    25    1
    32     4     5    1
    33     5     6    1
    34    18    13   ar
    35     6     1    1
    36    25    20    1
    37    34    27   ar
@<TRIPOS>MOLECULE
*****
 34 37 0 0 0
SMALL
GASTEIGER

@<TRIPOS>ATOM
      1 N         142.9795  141.0334  166.7330 N.3     1  UNL1       -0.2691
      2 C         143.4845  142.0779  165.7822 C.3     1  UNL1        0.0724
      3 C         144.0346  141.6733  164.4466 C.3     1  UNL1        0.0188
      4 C         144.0796  140.2241  164.0618 C.3     1  UNL1        0.0188
      5 C         143.5746  139.1797  165.0126 C.3     1  UNL1        0.0188
      6 C         143.0245  139.5843  166.3482 C.3     1  UNL1        0.0724
      7 C         142.4295  141.4380  168.0685 C.3     1  UNL1        0.0987
      8 C         143.3452  141.5636  169.2500 C.2     1  UNL1        0.0652
      9 O         144.1473  142.8157  169.4473 O.co2   1  UNL1       -0.5478
     10 O         143.4589  140.4372  170.2339 O.co2   1  UNL1       -0.5478
     11 C         140.9638  141.7170  168.2227 C.3     1  UNL1        0.0477
     12 C         140.1130  143.1386  165.7216 C.3     1  UNL1        0.0307
     13 C         139.5509  141.7856  166.0434 C.ar    1  UNL1       -0.0257
     14 C         138.5635  141.1435  165.1147 C.ar    1  UNL1       -0.0046
     15 C         138.0014  139.7905  165.4365 C.ar    1  UNL1       -0.0003
     16 C         138.4267  139.0797  166.6870 C.ar    1  UNL1       -0.0003
     17 C         139.4142  139.7219  167.6157 C.ar    1  UNL1       -0.0045
     18 C         139.9763  141.0748  167.2939 C.ar    1  UNL1       -0.0244
     19 C         144.6296  139.8195  162.7263 C.3     1  UNL1        0.0721
     20 N         143.7003  139.5835  161.5727 N.3     1  UNL1       -0.2724
     21 C         142.7665  138.4097  161.5898 C.3     1  UNL1        0.0758
     22 C         141.8373  138.1738  160.4363 C.3     1  UNL1        0.0609
     23 C         141.8417  139.1116  159.2656 C.3     1  UNL1        0.1687
     24 C         142.7755  140.2854  159.2485 C.3     1  UNL1        0.0609
     25 C         143.7048  140.5213  160.4020 C.3     1  UNL1        0.0758
     26 O         140.9124  138.8756  158.1120 O.3     1  UNL1       -0.4790
     27 C         141.1474  137.7212  157.1836 C.ar    1  UNL1        0.1393
     28 C         140.1020  137.3441  156.1761 C.ar    1  UNL1        0.0378
     29 C         140.3370  136.1896  155.2477 C.ar    1  UNL1        0.0154
     30 C         141.6175  135.4123  155.3267 C.ar    1  UNL1        0.0684
     31 CL        141.8525  134.2578  154.3983 Cl      1  UNL1       -0.0814
     32 C         142.6629  135.7894  156.3341 C.ar    1  UNL1        0.0712
     33 CL        143.9433  135.0121  156.4131 Cl      1  UNL1       -0.0813
     34 C         142.4278  136.9439  157.2626 C.ar    1  UNL1        0.0491
@<TRIPOS>UNITY_ATOM_ATTR
9 1
charge -1
@<TRIPOS>BOND
     1    12    13    1
     2    13    14   ar
     3    14    15   ar
     4    15    16   ar
     5    16    17   ar
     6    17    18   ar
     7    18    11    1
     8     7    11    1
     9     7     8    1
    10     8     9   ar
    11     8    10   ar
    12     7     1    1
    13     1     2    1
    14     2     3    1
    15     3     4    1
    16     4    19    1
    17    19    20    1
    18    20    21    1
    19    21    22    1
    20    22    23    1
    21    23    26    1
    22    26    27    1
    23    27    28   ar
    24    28    29   ar
    25    29    30   ar
    26    30    31    1
    27    30    32   ar
    28    32    33    1
    29    32    34   ar
    30    23    24    1
    31    24    25    1
    32     4     5    1
    33     5     6    1
    34    18    13   ar
    35     6     1    1
    36    25    20    1
    37    34    27   ar
@<TRIPOS>MOLECULE
*****
 34 37 0 0 0
SMALL
GASTEIGER

@<TRIPOS>ATOM
      1 N         142.0764  140.1231  166.6200 N.3     1  UNL1       -0.2691
      2 C         142.6250  141.4926  166.3486 C.3     1  UNL1        0.0724
      3 C         143.6475  141.6905  165.2690 C.3     1  UNL1        0.0188
      4 C         144.1212  140.5189  164.4609 C.3     1  UNL1        0.0188
      5 C         143.5726  139.1495  164.7324 C.3     1  UNL1        0.0188
      6 C         142.5501  138.9516  165.8119 C.3     1  UNL1        0.0724
      7 C         141.0539  139.9253  167.6996 C.3     1  UNL1        0.0987
      8 C         141.4931  139.6920  169.1148 C.2     1  UNL1        0.0652
      9 O         140.4706  139.5273  170.1999 O.co2   1  UNL1       -0.5478
     10 O         142.9546  139.6234  169.4449 O.co2   1  UNL1       -0.5478
     11 C         139.5924  139.9606  167.3640 C.3     1  UNL1        0.0477
     12 C         138.8332  137.8350  165.3878 C.3     1  UNL1        0.0307
     13 C         138.7694  139.2813  164.9952 C.ar    1  UNL1       -0.0257
     14 C         138.3260  139.6648  163.6145 C.ar    1  UNL1       -0.0046
     15 C         138.2622  141.1111  163.2219 C.ar    1  UNL1       -0.0003
     16 C         138.6418  142.1739  164.2099 C.ar    1  UNL1       -0.0003
     17 C         139.0852  141.7904  165.5906 C.ar    1  UNL1       -0.0045
     18 C         139.1490  140.3441  165.9832 C.ar    1  UNL1       -0.0244
     19 C         145.1437  140.7168  163.3813 C.3     1  UNL1        0.0721
     20 N         144.7045  140.9539  161.9668 N.3     1  UNL1       -0.2724
     21 C         144.1593  139.8197  161.1505 C.3     1  UNL1        0.0758
     22 C         143.7201  140.0569  159.7361 C.3     1  UNL1        0.0609
     23 C         143.8261  141.4283  159.1378 C.3     1  UNL1        0.1687
     24 C         144.3713  142.5626  159.9540 C.3     1  UNL1        0.0609
     25 C         144.8105  142.3254  161.3685 C.3     1  UNL1        0.0758
     26 O         143.3869  141.6655  157.7232 O.3     1  UNL1       -0.4790
     27 C         144.3802  142.1219  156.6960 C.ar    1  UNL1        0.1393
     28 C         143.9100  142.8357  155.4633 C.ar    1  UNL1        0.0378
     29 C         144.9033  143.2921  154.4362 C.ar    1  UNL1        0.0154
     30 C         146.3667  143.0347  154.6416 C.ar    1  UNL1        0.0684
     31 CL        147.3600  143.4911  153.6145 Cl      1  UNL1       -0.0814
     32 C         146.8369  142.3209  155.8743 C.ar    1  UNL1        0.0712
     33 CL        148.3002  142.0635  156.0798 Cl      1  UNL1       -0.0813
     34 C         145.8435  141.8645  156.9015 C.ar    1  UNL1        0.0491
@<TRIPOS>UNITY_ATOM_ATTR
9 1
charge -1
@<TRIPOS>BOND
     1    12    13    1
     2    13    14   ar
     3    14    15   ar
     4    15    16   ar
     5    16    17   ar
     6    17    18   ar
     7    18    11    1
     8     7    11    1
     9     7     8    1
    10     8     9   ar
    11     8    10   ar
    12     7     1    1
    13     1     2    1
    14     2     3    1
    15     3     4    1
    16     4    19    1
    17    19    20    1
    18    20    21    1
    19    21    22    1
    20    22    23    1
    21    23    26    1
    22    26    27    1
    23    27    28   ar
    24    28    29   ar
    25    29    30   ar
    26    30    31    1
    27    30    32   ar
    28    32    33    1
    29    32    34   ar
    30    23    24    1
    31    24    25    1
    32     4     5    1
    33     5     6    1
    34    18    13   ar
    35     6     1    1
    36    25    20    1
    37    34    27   ar
@<TRIPOS>MOLECULE
*****
 34 37 0 0 0
SMALL
GASTEIGER

@<TRIPOS>ATOM
      1 N         140.5030  139.8754  166.9945 N.3     1  UNL1       -0.2691
      2 C         141.7997  139.2613  166.5568 C.3     1  UNL1        0.0724
      3 C         141.8285  138.3260  165.3844 C.3     1  UNL1        0.0188
      4 C         140.5607  138.0050  164.6498 C.3     1  UNL1        0.0188
      5 C         139.2642  138.6191  165.0875 C.3     1  UNL1        0.0188
      6 C         139.2353  139.5544  166.2599 C.3     1  UNL1        0.0724
      7 C         140.4741  140.8107  168.1669 C.3     1  UNL1        0.0987
      8 C         140.0533  140.3089  169.5164 C.2     1  UNL1        0.0652
      9 O         140.8794  139.2755  170.2234 O.co2   1  UNL1       -0.5478
     10 O         138.8065  140.8404  170.1590 O.co2   1  UNL1       -0.5478
     11 C         140.8660  142.2477  167.9898 C.3     1  UNL1        0.0477
     12 C         139.5265  143.2630  165.5049 C.3     1  UNL1        0.0307
     13 C         141.0223  143.1673  165.5649 C.ar    1  UNL1       -0.0257
     14 C         141.8483  143.5791  164.3825 C.ar    1  UNL1       -0.0046
     15 C         143.3440  143.4833  164.4426 C.ar    1  UNL1       -0.0003
     16 C         144.0137  142.9757  165.6850 C.ar    1  UNL1       -0.0003
     17 C         143.1878  142.5638  166.8674 C.ar    1  UNL1       -0.0045
     18 C         141.6920  142.6596  166.8073 C.ar    1  UNL1       -0.0244
     19 C         140.5896  137.0697  163.4774 C.3     1  UNL1        0.0721
     20 N         140.6935  137.6163  162.0843 N.3     1  UNL1       -0.2724
     21 C         142.0363  137.7507  161.4296 C.3     1  UNL1        0.0758
     22 C         142.1401  138.2972  160.0366 C.3     1  UNL1        0.0609
     23 C         140.9011  138.7094  159.2984 C.3     1  UNL1        0.1687
     24 C         139.5583  138.5751  159.9531 C.3     1  UNL1        0.0609
     25 C         139.4545  138.0285  161.3461 C.3     1  UNL1        0.0758
     26 O         141.0050  139.2560  157.9053 O.3     1  UNL1       -0.4790
     27 C         140.0150  138.8366  156.8593 C.ar    1  UNL1        0.1393
     28 C         139.9755  137.4117  156.3925 C.ar    1  UNL1        0.0378
     29 C         138.9856  136.9923  155.3465 C.ar    1  UNL1        0.0154
     30 C         138.0351  137.9979  154.7673 C.ar    1  UNL1        0.0684
     31 CL        137.0452  137.5785  153.7214 Cl      1  UNL1       -0.0814
     32 C         138.0746  139.4228  155.2342 C.ar    1  UNL1        0.0712
     33 CL        137.1241  140.4284  154.6550 Cl      1  UNL1       -0.0813
     34 C         139.0646  139.8422  156.2802 C.ar    1  UNL1        0.0491
@<TRIPOS>UNITY_ATOM_ATTR
9 1
charge -1
@<TRIPOS>BOND
     1    12    13    1
     2    13    14   ar
     3    14    15   ar
     4    15    16   ar
     5    16    17   ar
     6    17    18   ar
     7    18    11    1
     8     7    11    1
     9     7     8    1
    10     8     9   ar
    11     8    10   ar
    12     7     1    1
    13     1     2    1
    14     2     3    1
    15     3     4    1
    16     4    19    1
    17    19    20    1
    18    20    21    1
    19    21    22    1
    20    22    23    1
    21    23    26    1
    22    26    27    1
    23    27    28   ar
    24    28    29   ar
    25    29    30   ar
    26    30    31    1
    27    30    32   ar
    28    32    33    1
    29    32    34   ar
    30    23    24    1
    31    24    25    1
    32     4     5    1
    33     5     6    1
    34    18    13   ar
    35     6     1    1
    36    25    20    1
    37    34    27   ar
@<TRIPOS>MOLECULE
*****
 34 37 0 0 0
SMALL
GASTEIGER

@<TRIPOS>ATOM
      1 N         140.9371  139.7441  166.8568 N.3     1  UNL1       -0.2691
      2 C         141.8619  139.0776  165.8817 C.3     1  UNL1        0.0724
      3 C         141.3020  138.3271  164.7099 C.3     1  UNL1        0.0188
      4 C         139.8173  138.2431  164.5131 C.3     1  UNL1        0.0188
      5 C         138.8926  138.9096  165.4881 C.3     1  UNL1        0.0188
      6 C         139.4525  139.6601  166.6599 C.3     1  UNL1        0.0724
      7 C         141.4971  140.4947  168.0286 C.3     1  UNL1        0.0987
      8 C         141.6998  139.7950  169.3399 C.2     1  UNL1        0.0652
      9 O         143.0860  139.4596  169.8046 O.co2   1  UNL1       -0.5478
     10 O         140.5163  139.4308  170.1865 O.co2   1  UNL1       -0.5478
     11 C         141.8542  141.9448  167.8892 C.3     1  UNL1        0.0477
     12 C         139.7885  143.1883  166.1040 C.3     1  UNL1        0.0307
     13 C         141.2190  143.1158  165.6586 C.ar    1  UNL1       -0.0257
     14 C         141.6167  143.6649  164.3206 C.ar    1  UNL1       -0.0046
     15 C         143.0472  143.5924  163.8752 C.ar    1  UNL1       -0.0003
     16 C         144.0800  142.9707  164.7677 C.ar    1  UNL1       -0.0003
     17 C         143.6824  142.4215  166.1057 C.ar    1  UNL1       -0.0045
     18 C         142.2519  142.4940  166.5511 C.ar    1  UNL1       -0.0244
     19 C         139.2574  137.4925  163.3413 C.3     1  UNL1        0.0721
     20 N         138.9793  138.2108  162.0541 N.3     1  UNL1       -0.2724
     21 C         139.9827  138.1690  160.9399 C.3     1  UNL1        0.0758
     22 C         139.7045  138.8872  159.6528 C.3     1  UNL1        0.0609
     23 C         138.4230  139.6473  159.4799 C.3     1  UNL1        0.1687
     24 C         137.4196  139.6892  160.5940 C.3     1  UNL1        0.0609
     25 C         137.6977  138.9709  161.8811 C.3     1  UNL1        0.0758
     26 O         138.1449  140.3656  158.1927 O.3     1  UNL1       -0.4790
     27 C         138.7132  141.7340  157.9594 C.ar    1  UNL1        0.1393
     28 C         138.7678  142.2966  156.5700 C.ar    1  UNL1        0.0378
     29 C         139.3362  143.6650  156.3368 C.ar    1  UNL1        0.0154
     30 C         139.8501  144.4708  157.4930 C.ar    1  UNL1        0.0684
     31 CL        140.4184  145.8392  157.2597 Cl      1  UNL1       -0.0814
     32 C         139.7955  143.9082  158.8824 C.ar    1  UNL1        0.0712
     33 CL        140.3093  144.7139  160.0385 Cl      1  UNL1       -0.0813
     34 C         139.2271  142.5397  159.1156 C.ar    1  UNL1        0.0491
@<TRIPOS>UNITY_ATOM_ATTR
9 1
charge -1
@<TRIPOS>BOND
     1    12    13    1
     2    13    14   ar
     3    14    15   ar
     4    15    16   ar
     5    16    17   ar
     6    17    18   ar
     7    18    11    1
     8     7    11    1
     9     7     8    1
    10     8     9   ar
    11     8    10   ar
    12     7     1    1
    13     1     2    1
    14     2     3    1
    15     3     4    1
    16     4    19    1
    17    19    20    1
    18    20    21    1
    19    21    22    1
    20    22    23    1
    21    23    26    1
    22    26    27    1
    23    27    28   ar
    24    28    29   ar
    25    29    30   ar
    26    30    31    1
    27    30    32   ar
    28    32    33    1
    29    32    34   ar
    30    23    24    1
    31    24    25    1
    32     4     5    1
    33     5     6    1
    34    18    13   ar
    35     6     1    1
    36    25    20    1
    37    34    27   ar
