@<TRIPOS>MOLECULE
*****
 20 22 0 0 0
SMALL
GASTEIGER

@<TRIPOS>ATOM
      1 C         140.7604  139.9088  166.6486 C.ar    1  UNL1        0.0528
      2 C         139.2668  139.9463  166.5155 C.ar    1  UNL1        0.0043
      3 C         138.5943  139.2019  165.4004 C.ar    1  UNL1       -0.0037
      4 C         139.4154  138.4199  164.4184 C.ar    1  UNL1       -0.0162
      5 C         140.9090  138.3824  164.5514 C.ar    1  UNL1       -0.0037
      6 C         141.5815  139.1269  165.6665 C.ar    1  UNL1        0.0043
      7 C         142.7024  142.9427  170.5814 C.3     1  UNL1        0.0283
      8 C         141.9186  142.3091  169.4704 C.3     1  UNL1        0.1279
      9 C         140.9835  143.4624  169.6841 C.3     1  UNL1        0.0283
     10 C         143.0175  141.2883  169.4890 C.3     1  UNL1        0.2292
     11 O         142.7174  140.2649  168.4343 O.2     1  UNL1       -0.4584
     12 C         141.4330  140.6532  167.7637 C.2     1  UNL1        0.2203
     13 N         140.9393  141.9166  168.4041 N.2     1  UNL1       -0.2380
     14 C         138.7428  137.6755  163.3032 C.3     1  UNL1        0.0715
     15 C         138.4661  138.3657  162.0005 C.ar    1  UNL1        0.0586
     16 C         139.2345  138.1829  160.7253 C.ar    1  UNL1        0.1134
     17 N         138.6157  139.0640  159.6810 N.ar    1  UNL1       -0.2229
     18 C         137.4648  139.7914  160.3107 C.ar    1  UNL1        0.1748
     19 N         137.3724  139.3597  161.7443 N.ar    1  UNL1       -0.3379
     20 H         136.7101  139.6738  162.4016 H       1  UNL1        0.1672
@<TRIPOS>BOND
     1     7     8    1
     2     8     9    1
     3     8    10    1
     4    10    11    1
     5    11    12    1
     6    12     1    1
     7     1     2   ar
     8     2     3   ar
     9     3     4   ar
    10     4    14    1
    11    14    15    1
    12    15    16   ar
    13    16    17   ar
    14    17    18   ar
    15    18    19   ar
    16     4     5   ar
    17     5     6   ar
    18    12    13    2
    19    13     8    1
    20     6     1   ar
    21    19    15   ar
    22    19    20    1
@<TRIPOS>MOLECULE
*****
 20 22 0 0 0
SMALL
GASTEIGER

@<TRIPOS>ATOM
      1 C         139.4165  139.2623  165.0624 C.ar    1  UNL1        0.0528
      2 C         138.2508  138.7015  165.8218 C.ar    1  UNL1        0.0043
      3 C         138.0975  138.9951  167.2847 C.ar    1  UNL1       -0.0037
      4 C         139.1098  139.8496  167.9883 C.ar    1  UNL1       -0.0162
      5 C         140.2755  140.4104  167.2290 C.ar    1  UNL1       -0.0037
      6 C         140.4289  140.1167  165.7660 C.ar    1  UNL1        0.0043
      7 C         139.4563  138.5198  159.7814 C.3     1  UNL1        0.0283
      8 C         139.1710  138.8899  161.2067 C.3     1  UNL1        0.1279
      9 C         137.9605  139.5587  160.6257 C.3     1  UNL1        0.0283
     10 C         140.4411  138.1437  161.4896 C.3     1  UNL1        0.2292
     11 O         140.6876  138.1924  162.9684 O.2     1  UNL1       -0.4584
     12 C         139.5699  138.9687  163.5994 C.2     1  UNL1        0.2203
     13 N         138.6326  139.3997  162.5106 N.2     1  UNL1       -0.2380
     14 C         138.9564  140.1432  169.4513 C.3     1  UNL1        0.0715
     15 C         140.1164  140.6844  170.2333 C.ar    1  UNL1        0.0586
     16 C         140.2568  142.0874  170.7452 C.ar    1  UNL1        0.1134
     17 N         141.5668  142.1877  171.4689 N.ar    1  UNL1       -0.2229
     18 C         142.2360  140.8468  171.4044 C.ar    1  UNL1        0.1748
     19 N         141.3396  139.9177  170.6407 N.ar    1  UNL1       -0.3379
     20 H         141.5220  138.9710  170.4418 H       1  UNL1        0.1672
@<TRIPOS>BOND
     1     7     8    1
     2     8     9    1
     3     8    10    1
     4    10    11    1
     5    11    12    1
     6    12     1    1
     7     1     2   ar
     8     2     3   ar
     9     3     4   ar
    10     4    14    1
    11    14    15    1
    12    15    16   ar
    13    16    17   ar
    14    17    18   ar
    15    18    19   ar
    16     4     5   ar
    17     5     6   ar
    18    12    13    2
    19    13     8    1
    20     6     1   ar
    21    19    15   ar
    22    19    20    1
@<TRIPOS>MOLECULE
*****
 20 22 0 0 0
SMALL
GASTEIGER

@<TRIPOS>ATOM
      1 C         139.7090  139.7749  166.2844 C.ar    1  UNL1        0.0528
      2 C         140.5957  140.3395  165.2144 C.ar    1  UNL1        0.0043
      3 C         140.6221  139.7104  163.8530 C.ar    1  UNL1       -0.0037
      4 C         139.7619  138.5167  163.5616 C.ar    1  UNL1       -0.0162
      5 C         138.8752  137.9520  164.6315 C.ar    1  UNL1       -0.0037
      6 C         138.8487  138.5811  165.9929 C.ar    1  UNL1        0.0043
      7 C         139.8830  142.4801  170.8772 C.3     1  UNL1        0.0283
      8 C         139.9800  141.9821  169.4656 C.3     1  UNL1        0.1279
      9 C         140.6363  143.3065  169.2101 C.3     1  UNL1        0.0283
     10 C         139.3034  140.7618  170.0163 C.3     1  UNL1        0.2292
     11 O         139.1196  139.7865  168.8916 O.2     1  UNL1       -0.4584
     12 C         139.6825  140.4040  167.6459 C.2     1  UNL1        0.2203
     13 N         140.2143  141.7609  168.0007 N.2     1  UNL1       -0.2380
     14 C         139.7884  137.8876  162.2000 C.3     1  UNL1        0.0715
     15 C         141.0251  137.9779  161.3561 C.ar    1  UNL1        0.0586
     16 C         141.1403  138.6740  160.0324 C.ar    1  UNL1        0.1134
     17 N         142.5501  138.5142  159.5458 N.ar    1  UNL1       -0.2229
     18 C         143.3063  137.7193  160.5688 C.ar    1  UNL1        0.1748
     19 N         142.3638  137.3878  161.6876 N.ar    1  UNL1       -0.3379
     20 H         142.5849  136.8733  162.4973 H       1  UNL1        0.1672
@<TRIPOS>BOND
     1     7     8    1
     2     8     9    1
     3     8    10    1
     4    10    11    1
     5    11    12    1
     6    12     1    1
     7     1     2   ar
     8     2     3   ar
     9     3     4   ar
    10     4    14    1
    11    14    15    1
    12    15    16   ar
    13    16    17   ar
    14    17    18   ar
    15    18    19   ar
    16     4     5   ar
    17     5     6   ar
    18    12    13    2
    19    13     8    1
    20     6     1   ar
    21    19    15   ar
    22    19    20    1
@<TRIPOS>MOLECULE
*****
 20 22 0 0 0
SMALL
GASTEIGER

@<TRIPOS>ATOM
      1 C         141.5486  143.4785  164.7578 C.ar    1  UNL1        0.0528
      2 C         142.9991  143.1512  164.9549 C.ar    1  UNL1        0.0043
      3 C         143.4524  142.4848  166.2200 C.ar    1  UNL1       -0.0037
      4 C         142.4551  142.1457  167.2879 C.ar    1  UNL1       -0.0162
      5 C         141.0046  142.4729  167.0908 C.ar    1  UNL1       -0.0037
      6 C         140.5514  143.1393  165.8257 C.ar    1  UNL1        0.0043
      7 C         140.3427  145.5170  159.9794 C.3     1  UNL1        0.0283
      8 C         140.8982  144.7706  161.1560 C.3     1  UNL1        0.1279
      9 C         141.7832  144.1271  160.1300 C.3     1  UNL1        0.0283
     10 C         139.8970  145.5703  161.9360 C.3     1  UNL1        0.2292
     11 O         140.0188  145.1835  163.3801 O.2     1  UNL1       -0.4584
     12 C         141.0953  144.1449  163.4927 C.2     1  UNL1        0.2203
     13 N         141.6387  143.8897  162.1181 N.2     1  UNL1       -0.2380
     14 C         142.9085  141.4792  168.5530 C.3     1  UNL1        0.0715
     15 C         141.9104  141.1348  169.6185 C.ar    1  UNL1        0.0586
     16 C         141.6705  141.9040  170.8836 C.ar    1  UNL1        0.1134
     17 N         140.5889  141.2053  171.6529 N.ar    1  UNL1       -0.2229
     18 C         140.1603  140.0041  170.8632 C.ar    1  UNL1        0.1748
     19 N         140.9771  139.9606  169.6059 N.ar    1  UNL1       -0.3379
     20 H         140.9120  139.2807  168.8968 H       1  UNL1        0.1672
@<TRIPOS>BOND
     1     7     8    1
     2     8     9    1
     3     8    10    1
     4    10    11    1
     5    11    12    1
     6    12     1    1
     7     1     2   ar
     8     2     3   ar
     9     3     4   ar
    10     4    14    1
    11    14    15    1
    12    15    16   ar
    13    16    17   ar
    14    17    18   ar
    15    18    19   ar
    16     4     5   ar
    17     5     6   ar
    18    12    13    2
    19    13     8    1
    20     6     1   ar
    21    19    15   ar
    22    19    20    1
@<TRIPOS>MOLECULE
*****
 20 22 0 0 0
SMALL
GASTEIGER

@<TRIPOS>ATOM
      1 C         139.0608  139.7381  166.0226 C.ar    1  UNL1        0.0528
      2 C         139.3651  138.3137  165.6641 C.ar    1  UNL1        0.0043
      3 C         139.0854  137.8131  164.2780 C.ar    1  UNL1       -0.0037
      4 C         138.5014  138.7368  163.2506 C.ar    1  UNL1       -0.0162
      5 C         138.1971  140.1611  163.6091 C.ar    1  UNL1       -0.0037
      6 C         138.4768  140.6618  164.9951 C.ar    1  UNL1        0.0043
      7 C         140.3417  141.9706  170.6936 C.3     1  UNL1        0.0283
      8 C         140.1410  141.5952  169.2552 C.3     1  UNL1        0.1279
      9 C         140.9237  142.8456  168.9832 C.3     1  UNL1        0.0283
     10 C         139.4004  140.4232  169.8280 C.3     1  UNL1        0.2292
     11 O         138.9056  139.5850  168.6868 O.2     1  UNL1       -0.4584
     12 C         139.3404  140.2388  167.4087 C.2     1  UNL1        0.2203
     13 N         140.1040  141.4811  167.7600 N.2     1  UNL1       -0.2380
     14 C         138.2218  138.2361  161.8645 C.3     1  UNL1        0.0715
     15 C         139.2500  138.4029  160.7851 C.ar    1  UNL1        0.0586
     16 C         140.7358  138.2926  160.9583 C.ar    1  UNL1        0.1134
     17 N         141.3770  138.5307  159.6233 N.ar    1  UNL1       -0.2229
     18 C         140.2874  138.7882  158.6251 C.ar    1  UNL1        0.1748
     19 N         138.9728  138.7092  159.3431 N.ar    1  UNL1       -0.3379
     20 H         138.0841  138.8361  158.9390 H       1  UNL1        0.1672
@<TRIPOS>BOND
     1     7     8    1
     2     8     9    1
     3     8    10    1
     4    10    11    1
     5    11    12    1
     6    12     1    1
     7     1     2   ar
     8     2     3   ar
     9     3     4   ar
    10     4    14    1
    11    14    15    1
    12    15    16   ar
    13    16    17   ar
    14    17    18   ar
    15    18    19   ar
    16     4     5   ar
    17     5     6   ar
    18    12    13    2
    19    13     8    1
    20     6     1   ar
    21    19    15   ar
    22    19    20    1
@<TRIPOS>MOLECULE
*****
 20 22 0 0 0
SMALL
GASTEIGER

@<TRIPOS>ATOM
      1 C         140.4925  142.8722  166.1630 C.ar    1  UNL1        0.0528
      2 C         141.7896  142.8445  165.4103 C.ar    1  UNL1        0.0043
      3 C         141.9941  143.7534  164.2347 C.ar    1  UNL1       -0.0037
      4 C         140.9014  144.6900  163.8118 C.ar    1  UNL1       -0.0162
      5 C         139.6043  144.7177  164.5645 C.ar    1  UNL1       -0.0037
      6 C         139.3998  143.8088  165.7401 C.ar    1  UNL1        0.0043
      7 C         139.9978  140.0740  170.6761 C.3     1  UNL1        0.0283
      8 C         140.2614  141.0873  169.6019 C.3     1  UNL1        0.1279
      9 C         140.7826  141.9207  170.7349 C.3     1  UNL1        0.0283
     10 C         139.6851  140.0419  168.6935 C.3     1  UNL1        0.2292
     11 O         139.7016  140.5833  167.2947 O.2     1  UNL1       -0.4584
     12 C         140.2880  141.9633  167.3387 C.2     1  UNL1        0.2203
     13 N         140.6340  142.2747  168.7646 N.2     1  UNL1       -0.2380
     14 C         141.1059  145.5989  162.6362 C.3     1  UNL1        0.0715
     15 C         140.7536  145.1302  161.2555 C.ar    1  UNL1        0.0586
     16 C         139.6449  144.1838  160.9019 C.ar    1  UNL1        0.1134
     17 N         139.6543  143.9942  159.4139 N.ar    1  UNL1       -0.2229
     18 C         140.7688  144.8234  158.8480 C.ar    1  UNL1        0.1748
     19 N         141.4483  145.5255  159.9862 N.ar    1  UNL1       -0.3379
     20 H         142.2154  146.1381  159.9129 H       1  UNL1        0.1672
@<TRIPOS>BOND
     1     7     8    1
     2     8     9    1
     3     8    10    1
     4    10    11    1
     5    11    12    1
     6    12     1    1
     7     1     2   ar
     8     2     3   ar
     9     3     4   ar
    10     4    14    1
    11    14    15    1
    12    15    16   ar
    13    16    17   ar
    14    17    18   ar
    15    18    19   ar
    16     4     5   ar
    17     5     6   ar
    18    12    13    2
    19    13     8    1
    20     6     1   ar
    21    19    15   ar
    22    19    20    1
@<TRIPOS>MOLECULE
*****
 20 22 0 0 0
SMALL
GASTEIGER

@<TRIPOS>ATOM
      1 C         142.7289  139.0233  165.5641 C.ar    1  UNL1        0.0528
      2 C         141.8043  138.3157  164.6184 C.ar    1  UNL1        0.0043
      3 C         142.2267  138.0691  163.2005 C.ar    1  UNL1       -0.0037
      4 C         143.5738  138.5300  162.7282 C.ar    1  UNL1       -0.0162
      5 C         144.4983  139.2376  163.6739 C.ar    1  UNL1       -0.0037
      6 C         144.0759  139.4842  165.0919 C.ar    1  UNL1        0.0043
      7 C         140.7115  140.0942  170.3835 C.3     1  UNL1        0.0283
      8 C         140.9928  139.9016  168.9227 C.3     1  UNL1        0.1279
      9 C         139.6065  140.4462  168.7450 C.3     1  UNL1        0.0283
     10 C         142.3203  139.3973  169.4059 C.3     1  UNL1        0.2292
     11 O         143.1322  139.0069  168.2065 O.2     1  UNL1       -0.4584
     12 C         142.3065  139.2699  166.9822 C.2     1  UNL1        0.2203
     13 N         140.9843  139.8229  167.4248 N.2     1  UNL1       -0.2380
     14 C         143.9962  138.2834  161.3101 C.3     1  UNL1        0.0715
     15 C         143.8389  139.3641  160.2819 C.ar    1  UNL1        0.0586
     16 C         143.8238  140.8400  160.5494 C.ar    1  UNL1        0.1134
     17 N         143.6447  141.5468  159.2385 N.ar    1  UNL1       -0.2229
     18 C         143.5491  140.5077  158.1609 C.ar    1  UNL1        0.1748
     19 N         143.6691  139.1588  158.8058 N.ar    1  UNL1       -0.3379
     20 H         143.6413  138.2910  158.3417 H       1  UNL1        0.1672
@<TRIPOS>BOND
     1     7     8    1
     2     8     9    1
     3     8    10    1
     4    10    11    1
     5    11    12    1
     6    12     1    1
     7     1     2   ar
     8     2     3   ar
     9     3     4   ar
    10     4    14    1
    11    14    15    1
    12    15    16   ar
    13    16    17   ar
    14    17    18   ar
    15    18    19   ar
    16     4     5   ar
    17     5     6   ar
    18    12    13    2
    19    13     8    1
    20     6     1   ar
    21    19    15   ar
    22    19    20    1
@<TRIPOS>MOLECULE
*****
 20 22 0 0 0
SMALL
GASTEIGER

@<TRIPOS>ATOM
      1 C         140.0151  141.5187  166.6646 C.ar    1  UNL1        0.0528
      2 C         140.1540  142.9367  166.1957 C.ar    1  UNL1        0.0043
      3 C         139.3597  143.4184  165.0180 C.ar    1  UNL1       -0.0037
      4 C         138.4265  142.4820  164.3091 C.ar    1  UNL1       -0.0162
      5 C         138.2876  141.0640  164.7780 C.ar    1  UNL1       -0.0037
      6 C         139.0819  140.5824  165.9558 C.ar    1  UNL1        0.0043
      7 C         143.1794  140.2870  170.7771 C.3     1  UNL1        0.0283
      8 C         142.4841  140.8905  169.5929 C.3     1  UNL1        0.1279
      9 C         143.5344  141.9542  169.7169 C.3     1  UNL1        0.0283
     10 C         141.5791  139.7006  169.7165 C.3     1  UNL1        0.2292
     11 O         140.5441  139.7912  168.6346 O.2     1  UNL1       -0.4584
     12 C         140.8094  141.0369  167.8424 C.2     1  UNL1        0.2203
     13 N         142.0084  141.7164  168.4346 N.2     1  UNL1       -0.2380
     14 C         137.6322  142.9638  163.1314 C.3     1  UNL1        0.0715
     15 C         138.0260  142.5544  161.7431 C.ar    1  UNL1        0.0586
     16 C         137.9589  141.1652  161.1811 C.ar    1  UNL1        0.1134
     17 N         138.4474  141.2145  159.7638 N.ar    1  UNL1       -0.2229
     18 C         138.8165  142.6341  159.4498 C.ar    1  UNL1        0.1748
     19 N         138.5561  143.4622  160.6731 N.ar    1  UNL1       -0.3379
     20 H         138.7066  144.4313  160.7587 H       1  UNL1        0.1672
@<TRIPOS>BOND
     1     7     8    1
     2     8     9    1
     3     8    10    1
     4    10    11    1
     5    11    12    1
     6    12     1    1
     7     1     2   ar
     8     2     3   ar
     9     3     4   ar
    10     4    14    1
    11    14    15    1
    12    15    16   ar
    13    16    17   ar
    14    17    18   ar
    15    18    19   ar
    16     4     5   ar
    17     5     6   ar
    18    12    13    2
    19    13     8    1
    20     6     1   ar
    21    19    15   ar
    22    19    20    1
@<TRIPOS>MOLECULE
*****
 20 22 0 0 0
SMALL
GASTEIGER

@<TRIPOS>ATOM
      1 C         142.2469  140.7083  167.0547 C.ar    1  UNL1        0.0528
      2 C         142.6120  139.2607  166.9092 C.ar    1  UNL1        0.0043
      3 C         143.4833  138.8177  165.7715 C.ar    1  UNL1       -0.0037
      4 C         143.9895  139.8222  164.7792 C.ar    1  UNL1       -0.0162
      5 C         143.6244  141.2698  164.9246 C.ar    1  UNL1       -0.0037
      6 C         142.7531  141.7128  166.0623 C.ar    1  UNL1        0.0043
      7 C         139.3488  142.8333  170.9952 C.3     1  UNL1        0.0283
      8 C         140.2631  142.5405  169.8426 C.3     1  UNL1        0.1279
      9 C         140.5285  144.0163  169.8824 C.3     1  UNL1        0.0283
     10 C         139.8064  141.1259  170.0439 C.3     1  UNL1        0.2292
     11 O         140.4940  140.2674  169.0240 O.2     1  UNL1       -0.4584
     12 C         141.3756  141.1514  168.1924 C.2     1  UNL1        0.2203
     13 N         141.2328  142.5563  168.6984 N.2     1  UNL1       -0.2380
     14 C         144.8609  139.3791  163.6414 C.3     1  UNL1        0.0715
     15 C         144.2877  139.2588  162.2605 C.ar    1  UNL1        0.0586
     16 C         143.8133  137.9932  161.6099 C.ar    1  UNL1        0.1134
     17 N         143.3206  138.3352  160.2351 N.ar    1  UNL1       -0.2229
     18 C         143.4906  139.8123  160.0358 C.ar    1  UNL1        0.1748
     19 N         144.0882  140.3830  161.2876 N.ar    1  UNL1       -0.3379
     20 H         144.3106  141.3294  161.4434 H       1  UNL1        0.1672
@<TRIPOS>BOND
     1     7     8    1
     2     8     9    1
     3     8    10    1
     4    10    11    1
     5    11    12    1
     6    12     1    1
     7     1     2   ar
     8     2     3   ar
     9     3     4   ar
    10     4    14    1
    11    14    15    1
    12    15    16   ar
    13    16    17   ar
    14    17    18   ar
    15    18    19   ar
    16     4     5   ar
    17     5     6   ar
    18    12    13    2
    19    13     8    1
    20     6     1   ar
    21    19    15   ar
    22    19    20    1
