@<TRIPOS>MOLECULE
*****
 37 42 0 0 0
SMALL
GASTEIGER

@<TRIPOS>ATOM
      1 C         140.3046  145.0987  160.4884 C.3     1  UNL1        0.0468
      2 C         141.1288  143.9782  159.9267 C.ar    1  UNL1        0.0146
      3 C         142.1215  144.2512  158.8359 C.ar    1  UNL1       -0.0011
      4 C         142.9456  143.1308  158.2743 C.ar    1  UNL1        0.0014
      5 C         142.7769  141.7374  158.8034 C.ar    1  UNL1        0.0206
      6 C         141.7842  141.4644  159.8942 C.ar    1  UNL1        0.0989
      7 C         140.9601  142.5848  160.4559 C.ar    1  UNL1        0.1511
      8 O         139.9673  142.3119  161.5467 O.3     1  UNL1       -0.4678
      9 C         139.7987  140.9185  162.0759 C.3     1  UNL1        0.2510
     10 C         140.6228  139.7981  161.5142 C.ar    1  UNL1        0.1087
     11 C         140.6759  138.3334  161.8334 C.ar    1  UNL1        0.1514
     12 N         141.7015  137.7012  160.9399 N.ar    1  UNL1       -0.2192
     13 C         142.2822  138.7751  160.0684 C.ar    1  UNL1        0.1828
     14 N         141.6155  140.0710  160.4234 N.ar    1  UNL1       -0.2851
     15 C         139.8486  137.6254  162.8651 C.2     1  UNL1        0.2618
     16 N         138.4048  137.3246  162.5913 N.am    1  UNL1       -0.3240
     17 O         140.4651  137.2180  164.1704 O.2     1  UNL1       -0.2687
     18 H         138.0001  137.5920  161.7346 H       1  UNL1        0.1453
     19 H         137.8618  136.8599  163.2684 H       1  UNL1        0.1453
     20 C         140.6863  145.7283  161.7953 C.3     1  UNL1        0.0770
     21 N         140.4372  143.3403  165.6012 N.pl3   1  UNL1       -0.3046
     22 C         141.7103  143.3569  164.8082 C.3     1  UNL1        0.1081
     23 C         141.7934  144.1530  163.5395 C.3     1  UNL1        0.0938
     24 N         140.6033  144.9323  163.0639 N.3     1  UNL1       -0.2695
     25 C         139.3301  144.9157  163.8569 C.3     1  UNL1        0.0938
     26 C         139.2471  144.1197  165.1256 C.3     1  UNL1        0.1081
     27 C         137.3377  137.3586  166.9658 C.3     1  UNL1        0.0521
     28 C         138.0919  138.6550  166.9418 C.ar    1  UNL1        0.0593
     29 C         138.1749  139.4510  165.6732 C.ar    1  UNL1        0.0148
     30 C         138.9290  140.7475  165.6492 C.ar    1  UNL1        0.0039
     31 C         139.6001  141.2479  166.8938 C.ar    1  UNL1        0.0310
     32 C         140.3542  142.5443  166.8698 C.ar    1  UNL1        0.0493
     33 C         141.0253  143.0447  168.1145 C.ar    1  UNL1        0.0146
     34 C         140.9423  142.2487  169.3832 C.ar    1  UNL1        0.0028
     35 C         140.1882  140.9523  169.4072 C.ar    1  UNL1        0.0192
     36 C         139.5171  140.4519  168.1625 C.ar    1  UNL1        0.0821
     37 N         138.7630  139.1554  168.1865 N.ar    1  UNL1       -0.2496
@<TRIPOS>BOND
     1    27    28    1
     2    28    29   ar
     3    29    30   ar
     4    30    31   ar
     5    31    32   ar
     6    32    21    1
     7    21    22    1
     8    22    23    1
     9    23    24    1
    10    24    20    1
    11    20     1    1
    12     1     2    1
    13     2     3   ar
    14     3     4   ar
    15     4     5   ar
    16     5     6   ar
    17     6     7   ar
    18     7     8    1
    19     8     9    1
    20     9    10    1
    21    10    11   ar
    22    11    15    1
    23    15    16   am
    24    15    17    2
    25    11    12   ar
    26    12    13   ar
    27    13    14   ar
    28    24    25    1
    29    25    26    1
    30    32    33   ar
    31    33    34   ar
    32    34    35   ar
    33    35    36   ar
    34    36    37   ar
    35    37    28   ar
    36    36    31   ar
    37    26    21    1
    38     7     2   ar
    39    14    10   ar
    40    14     6    1
    41    16    18    1
    42    16    19    1
@<TRIPOS>MOLECULE
*****
 37 42 0 0 0
SMALL
GASTEIGER

@<TRIPOS>ATOM
      1 C         138.8855  137.5569  163.4024 C.3     1  UNL1        0.0468
      2 C         139.2276  138.4328  164.5711 C.ar    1  UNL1        0.0146
      3 C         138.3945  138.3799  165.8173 C.ar    1  UNL1       -0.0011
      4 C         138.7367  139.2558  166.9859 C.ar    1  UNL1        0.0014
      5 C         139.9119  140.1847  166.9082 C.ar    1  UNL1        0.0206
      6 C         140.7450  140.2376  165.6620 C.ar    1  UNL1        0.0989
      7 C         140.4028  139.3617  164.4934 C.ar    1  UNL1        0.1511
      8 O         141.2359  139.4146  163.2471 O.3     1  UNL1       -0.4678
      9 C         142.4112  140.3435  163.1695 C.3     1  UNL1        0.2510
     10 C         142.7533  141.2194  164.3382 C.ar    1  UNL1        0.1087
     11 C         143.8439  142.2267  164.5520 C.ar    1  UNL1        0.1514
     12 N         143.6849  142.7964  165.9305 N.ar    1  UNL1       -0.2192
     13 C         142.4960  142.1411  166.5685 C.ar    1  UNL1        0.1828
     14 N         141.9202  141.1665  165.5844 N.ar    1  UNL1       -0.2851
     15 C         144.9070  142.5991  163.5614 C.2     1  UNL1        0.2618
     16 N         146.2027  141.8438  163.5324 N.am    1  UNL1       -0.3240
     17 O         144.6744  143.7265  162.5999 O.2     1  UNL1       -0.2687
     18 H         146.3553  141.1037  164.1635 H       1  UNL1        0.1453
     19 H         146.9004  142.0881  162.8822 H       1  UNL1        0.1453
     20 C         138.0283  138.0886  162.2921 C.3     1  UNL1        0.0770
     21 N         139.3670  141.6842  159.9407 N.pl3   1  UNL1       -0.3046
     22 C         138.3908  141.8463  161.0680 C.3     1  UNL1        0.1081
     23 C         137.9446  140.6477  161.8518 C.3     1  UNL1        0.0938
     24 N         138.4745  139.2871  161.5084 N.3     1  UNL1       -0.2695
     25 C         139.4508  139.1251  160.3810 C.3     1  UNL1        0.0938
     26 C         139.8970  140.3236  159.5972 C.3     1  UNL1        0.1081
     27 C         136.9558  144.3959  154.1026 C.3     1  UNL1        0.0521
     28 C         137.6702  144.0176  155.3662 C.ar    1  UNL1        0.0593
     29 C         137.2240  142.8191  156.1500 C.ar    1  UNL1        0.0148
     30 C         137.9383  142.4408  157.4136 C.ar    1  UNL1        0.0039
     31 C         139.0989  143.2610  157.8934 C.ar    1  UNL1        0.0310
     32 C         139.8132  142.8827  159.1569 C.ar    1  UNL1        0.0493
     33 C         140.9739  143.7031  159.6367 C.ar    1  UNL1        0.0146
     34 C         141.4201  144.9016  158.8529 C.ar    1  UNL1        0.0028
     35 C         140.7057  145.2799  157.5893 C.ar    1  UNL1        0.0192
     36 C         139.5452  144.4596  157.1096 C.ar    1  UNL1        0.0821
     37 N         138.8308  144.8379  155.8460 N.ar    1  UNL1       -0.2496
@<TRIPOS>BOND
     1    27    28    1
     2    28    29   ar
     3    29    30   ar
     4    30    31   ar
     5    31    32   ar
     6    32    21    1
     7    21    22    1
     8    22    23    1
     9    23    24    1
    10    24    20    1
    11    20     1    1
    12     1     2    1
    13     2     3   ar
    14     3     4   ar
    15     4     5   ar
    16     5     6   ar
    17     6     7   ar
    18     7     8    1
    19     8     9    1
    20     9    10    1
    21    10    11   ar
    22    11    15    1
    23    15    16   am
    24    15    17    2
    25    11    12   ar
    26    12    13   ar
    27    13    14   ar
    28    24    25    1
    29    25    26    1
    30    32    33   ar
    31    33    34   ar
    32    34    35   ar
    33    35    36   ar
    34    36    37   ar
    35    37    28   ar
    36    36    31   ar
    37    26    21    1
    38     7     2   ar
    39    14    10   ar
    40    14     6    1
    41    16    18    1
    42    16    19    1
@<TRIPOS>MOLECULE
*****
 37 42 0 0 0
SMALL
GASTEIGER

@<TRIPOS>ATOM
      1 C         143.1551  140.0159  165.6649 C.3     1  UNL1        0.0468
      2 C         141.6854  140.2903  165.5426 C.ar    1  UNL1        0.0146
      3 C         140.7000  139.4504  166.2999 C.ar    1  UNL1       -0.0011
      4 C         139.2305  139.7248  166.1775 C.ar    1  UNL1        0.0014
      5 C         138.7463  140.8392  165.2979 C.ar    1  UNL1        0.0206
      6 C         139.7316  141.6791  164.5406 C.ar    1  UNL1        0.0989
      7 C         141.2012  141.4047  164.6630 C.ar    1  UNL1        0.1511
      8 O         142.1867  142.2447  163.9057 O.3     1  UNL1       -0.4678
      9 C         141.7025  143.3590  163.0261 C.3     1  UNL1        0.2510
     10 C         140.2328  143.6334  162.9037 C.ar    1  UNL1        0.1087
     11 C         139.4646  144.6556  162.1195 C.ar    1  UNL1        0.1514
     12 N         138.0043  144.4473  162.3922 N.ar    1  UNL1       -0.2192
     13 C         137.8701  143.2965  163.3448 C.ar    1  UNL1        0.1828
     14 N         139.2474  142.7935  163.6610 N.ar    1  UNL1       -0.2851
     15 C         140.0532  145.7022  161.2206 C.2     1  UNL1        0.2618
     16 N         141.3894  145.4739  160.5784 N.am    1  UNL1       -0.3240
     17 O         139.3056  146.9770  160.9638 O.2     1  UNL1       -0.2687
     18 H         141.8801  144.6372  160.7469 H       1  UNL1        0.1453
     19 H         141.7758  146.1608  159.9884 H       1  UNL1        0.1453
     20 C         143.8044  138.9973  164.7757 C.3     1  UNL1        0.0770
     21 N         142.4254  138.5211  160.5188 N.pl3   1  UNL1       -0.3046
     22 C         143.5592  139.4488  160.8405 C.3     1  UNL1        0.1081
     23 C         144.0190  139.6076  162.2595 C.3     1  UNL1        0.0938
     24 N         143.3447  138.8386  163.3568 N.3     1  UNL1       -0.2695
     25 C         142.2108  137.9108  163.0350 C.3     1  UNL1        0.0938
     26 C         141.7511  137.7521  161.6160 C.3     1  UNL1        0.1081
     27 C         137.2015  141.4310  157.1286 C.3     1  UNL1        0.0521
     28 C         138.3925  140.6638  157.6214 C.ar    1  UNL1        0.0593
     29 C         138.8522  140.8225  159.0403 C.ar    1  UNL1        0.0148
     30 C         140.0432  140.0554  159.5332 C.ar    1  UNL1        0.0039
     31 C         140.7746  139.1295  158.6070 C.ar    1  UNL1        0.0310
     32 C         141.9657  138.3624  159.0998 C.ar    1  UNL1        0.0493
     33 C         142.6971  137.4365  158.1736 C.ar    1  UNL1        0.0146
     34 C         142.2375  137.2778  156.7546 C.ar    1  UNL1        0.0028
     35 C         141.0464  138.0449  156.2618 C.ar    1  UNL1        0.0192
     36 C         140.3150  138.9708  157.1880 C.ar    1  UNL1        0.0821
     37 N         139.1239  139.7379  156.6952 N.ar    1  UNL1       -0.2496
@<TRIPOS>BOND
     1    27    28    1
     2    28    29   ar
     3    29    30   ar
     4    30    31   ar
     5    31    32   ar
     6    32    21    1
     7    21    22    1
     8    22    23    1
     9    23    24    1
    10    24    20    1
    11    20     1    1
    12     1     2    1
    13     2     3   ar
    14     3     4   ar
    15     4     5   ar
    16     5     6   ar
    17     6     7   ar
    18     7     8    1
    19     8     9    1
    20     9    10    1
    21    10    11   ar
    22    11    15    1
    23    15    16   am
    24    15    17    2
    25    11    12   ar
    26    12    13   ar
    27    13    14   ar
    28    24    25    1
    29    25    26    1
    30    32    33   ar
    31    33    34   ar
    32    34    35   ar
    33    35    36   ar
    34    36    37   ar
    35    37    28   ar
    36    36    31   ar
    37    26    21    1
    38     7     2   ar
    39    14    10   ar
    40    14     6    1
    41    16    18    1
    42    16    19    1
@<TRIPOS>MOLECULE
*****
 37 42 0 0 0
SMALL
GASTEIGER

@<TRIPOS>ATOM
      1 C         139.3069  138.1404  164.5700 C.3     1  UNL1        0.0468
      2 C         140.6075  138.8357  164.8444 C.ar    1  UNL1        0.0146
      3 C         141.7662  138.6556  163.9091 C.ar    1  UNL1       -0.0011
      4 C         143.0667  139.3508  164.1836 C.ar    1  UNL1        0.0014
      5 C         143.2084  140.2262  165.3934 C.ar    1  UNL1        0.0206
      6 C         142.0496  140.4063  166.3287 C.ar    1  UNL1        0.0989
      7 C         140.7492  139.7111  166.0542 C.ar    1  UNL1        0.1511
      8 O         139.5903  139.8912  166.9896 O.3     1  UNL1       -0.4678
      9 C         139.7321  140.7665  168.1994 C.3     1  UNL1        0.2510
     10 C         141.0326  141.4618  168.4739 C.ar    1  UNL1        0.1087
     11 C         141.4664  142.3799  169.5779 C.ar    1  UNL1        0.1514
     12 N         142.8933  142.7672  169.3249 N.ar    1  UNL1       -0.2192
     13 C         143.3413  142.0885  168.0646 C.ar    1  UNL1        0.1828
     14 N         142.1913  141.2817  167.5386 N.ar    1  UNL1       -0.2851
     15 C         140.6216  142.8314  170.7322 C.2     1  UNL1        0.2618
     16 N         139.6981  144.0026  170.5728 N.am    1  UNL1       -0.3240
     17 O         140.7003  142.1118  172.0460 O.2     1  UNL1       -0.2687
     18 H         139.6464  144.4749  169.7105 H       1  UNL1        0.1453
     19 H         139.1436  144.2990  171.3304 H       1  UNL1        0.1453
     20 C         139.0356  137.5665  163.2109 C.3     1  UNL1        0.0770
     21 N         138.4605  140.3041  159.6861 N.pl3   1  UNL1       -0.3046
     22 C         137.7846  140.6084  160.9901 C.3     1  UNL1        0.1081
     23 C         137.9763  139.6958  162.1651 C.3     1  UNL1        0.0938
     24 N         138.8439  138.4790  162.0360 N.3     1  UNL1       -0.2695
     25 C         139.5198  138.1748  160.7319 C.3     1  UNL1        0.0938
     26 C         139.3281  139.0873  159.5570 C.3     1  UNL1        0.1081
     27 C         141.9260  145.9085  157.7286 C.3     1  UNL1        0.0521
     28 C         141.0117  144.7356  157.9243 C.ar    1  UNL1        0.0593
     29 C         141.2034  143.8230  159.0992 C.ar    1  UNL1        0.0148
     30 C         140.2891  142.6501  159.2948 C.ar    1  UNL1        0.0039
     31 C         139.1831  142.3897  158.3156 C.ar    1  UNL1        0.0310
     32 C         138.2689  141.2167  158.5112 C.ar    1  UNL1        0.0493
     33 C         137.1629  140.9563  157.5319 C.ar    1  UNL1        0.0146
     34 C         136.9712  141.8689  156.3569 C.ar    1  UNL1        0.0028
     35 C         137.8855  143.0418  156.1613 C.ar    1  UNL1        0.0192
     36 C         138.9914  143.3022  157.1406 C.ar    1  UNL1        0.0821
     37 N         139.9057  144.4752  156.9449 N.ar    1  UNL1       -0.2496
@<TRIPOS>BOND
     1    27    28    1
     2    28    29   ar
     3    29    30   ar
     4    30    31   ar
     5    31    32   ar
     6    32    21    1
     7    21    22    1
     8    22    23    1
     9    23    24    1
    10    24    20    1
    11    20     1    1
    12     1     2    1
    13     2     3   ar
    14     3     4   ar
    15     4     5   ar
    16     5     6   ar
    17     6     7   ar
    18     7     8    1
    19     8     9    1
    20     9    10    1
    21    10    11   ar
    22    11    15    1
    23    15    16   am
    24    15    17    2
    25    11    12   ar
    26    12    13   ar
    27    13    14   ar
    28    24    25    1
    29    25    26    1
    30    32    33   ar
    31    33    34   ar
    32    34    35   ar
    33    35    36   ar
    34    36    37   ar
    35    37    28   ar
    36    36    31   ar
    37    26    21    1
    38     7     2   ar
    39    14    10   ar
    40    14     6    1
    41    16    18    1
    42    16    19    1
@<TRIPOS>MOLECULE
*****
 37 42 0 0 0
SMALL
GASTEIGER

@<TRIPOS>ATOM
      1 C         145.0044  141.3008  164.3421 C.3     1  UNL1        0.0468
      2 C         143.8068  140.4753  164.7088 C.ar    1  UNL1        0.0146
      3 C         143.4371  139.2807  163.8805 C.ar    1  UNL1       -0.0011
      4 C         142.2395  138.4553  164.2473 C.ar    1  UNL1        0.0014
      5 C         141.4116  138.8246  165.4424 C.ar    1  UNL1        0.0206
      6 C         141.7813  140.0193  166.2707 C.ar    1  UNL1        0.0989
      7 C         142.9789  140.8446  165.9039 C.ar    1  UNL1        0.1511
      8 O         143.3486  142.0394  166.7322 O.3     1  UNL1       -0.4678
      9 C         142.5207  142.4087  167.9273 C.3     1  UNL1        0.2510
     10 C         141.3231  141.5832  168.2940 C.ar    1  UNL1        0.1087
     11 C         140.3252  141.7020  169.4076 C.ar    1  UNL1        0.1514
     12 N         139.3387  140.5807  169.2675 N.ar    1  UNL1       -0.2192
     13 C         139.7270  139.7690  168.0674 C.ar    1  UNL1        0.1828
     14 N         140.9534  140.3886  167.4657 N.ar    1  UNL1       -0.2851
     15 C         140.3154  142.7569  170.4740 C.2     1  UNL1        0.2618
     16 N         140.2461  144.2064  170.0944 N.am    1  UNL1       -0.3240
     17 O         140.3750  142.3623  171.9199 O.2     1  UNL1       -0.2687
     18 H         140.2069  144.4654  169.1453 H       1  UNL1        0.1453
     19 H         140.2396  144.8988  170.7942 H       1  UNL1        0.1453
     20 C         144.8464  142.4969  163.4509 C.3     1  UNL1        0.0770
     21 N         141.5576  142.5970  160.3810 N.pl3   1  UNL1       -0.3046
     22 C         142.8131  141.8221  160.1102 C.3     1  UNL1        0.1081
     23 C         143.9094  141.7887  161.1335 C.3     1  UNL1        0.0938
     24 N         143.7502  142.5303  162.4276 N.3     1  UNL1       -0.2695
     25 C         142.4947  143.3052  162.6984 C.3     1  UNL1        0.0938
     26 C         141.3985  143.3386  161.6752 C.3     1  UNL1        0.1081
     27 C         140.3240  147.0013  155.2498 C.3     1  UNL1        0.0521
     28 C         140.3583  145.9086  156.2768 C.ar    1  UNL1        0.0593
     29 C         141.4546  145.8752  157.3000 C.ar    1  UNL1        0.0148
     30 C         141.4889  144.7825  158.3270 C.ar    1  UNL1        0.0039
     31 C         140.4270  143.7231  158.3308 C.ar    1  UNL1        0.0310
     32 C         140.4614  142.6303  159.3578 C.ar    1  UNL1        0.0493
     33 C         139.3995  141.5709  159.3615 C.ar    1  UNL1        0.0146
     34 C         138.3032  141.6042  158.3382 C.ar    1  UNL1        0.0028
     35 C         138.2689  142.6970  157.3112 C.ar    1  UNL1        0.0192
     36 C         139.3307  143.7564  157.3075 C.ar    1  UNL1        0.0821
     37 N         139.2964  144.8491  156.2805 N.ar    1  UNL1       -0.2496
@<TRIPOS>BOND
     1    27    28    1
     2    28    29   ar
     3    29    30   ar
     4    30    31   ar
     5    31    32   ar
     6    32    21    1
     7    21    22    1
     8    22    23    1
     9    23    24    1
    10    24    20    1
    11    20     1    1
    12     1     2    1
    13     2     3   ar
    14     3     4   ar
    15     4     5   ar
    16     5     6   ar
    17     6     7   ar
    18     7     8    1
    19     8     9    1
    20     9    10    1
    21    10    11   ar
    22    11    15    1
    23    15    16   am
    24    15    17    2
    25    11    12   ar
    26    12    13   ar
    27    13    14   ar
    28    24    25    1
    29    25    26    1
    30    32    33   ar
    31    33    34   ar
    32    34    35   ar
    33    35    36   ar
    34    36    37   ar
    35    37    28   ar
    36    36    31   ar
    37    26    21    1
    38     7     2   ar
    39    14    10   ar
    40    14     6    1
    41    16    18    1
    42    16    19    1
@<TRIPOS>MOLECULE
*****
 37 42 0 0 0
SMALL
GASTEIGER

@<TRIPOS>ATOM
      1 C         139.4294  137.6991  164.8355 C.3     1  UNL1        0.0468
      2 C         140.7320  138.3875  165.1172 C.ar    1  UNL1        0.0146
      3 C         141.9537  138.0360  164.3210 C.ar    1  UNL1       -0.0011
      4 C         143.2562  138.7244  164.6028 C.ar    1  UNL1        0.0014
      5 C         143.3371  139.7643  165.6808 C.ar    1  UNL1        0.0206
      6 C         142.1154  140.1158  166.4770 C.ar    1  UNL1        0.0989
      7 C         140.8129  139.4274  166.1952 C.ar    1  UNL1        0.1511
      8 O         139.5912  139.7788  166.9915 O.3     1  UNL1       -0.4678
      9 C         139.6721  140.8187  168.0695 C.3     1  UNL1        0.2510
     10 C         140.9747  141.5072  168.3512 C.ar    1  UNL1        0.1087
     11 C         141.3567  142.5647  169.3439 C.ar    1  UNL1        0.1514
     12 N         142.8146  142.8669  169.1612 N.ar    1  UNL1       -0.2192
     13 C         143.3335  141.9961  168.0556 C.ar    1  UNL1        0.1828
     14 N         142.1963  141.1557  167.5550 N.ar    1  UNL1       -0.2851
     15 C         140.4417  143.2074  170.3437 C.2     1  UNL1        0.2618
     16 N         140.1018  144.6633  170.2220 N.am    1  UNL1       -0.3240
     17 O         139.8665  142.3941  171.4653 O.2     1  UNL1       -0.2687
     18 H         140.4793  145.1970  169.4859 H       1  UNL1        0.1453
     19 H         139.5012  145.0851  170.8782 H       1  UNL1        0.1453
     20 C         138.8905  137.6572  163.4362 C.3     1  UNL1        0.0770
     21 N         139.5792  141.1273  160.6552 N.pl3   1  UNL1       -0.3046
     22 C         140.2789  139.8227  160.4140 C.3     1  UNL1        0.1081
     23 C         140.0493  138.6659  161.3411 C.3     1  UNL1        0.0938
     24 N         139.1201  138.8139  162.5092 N.3     1  UNL1       -0.2695
     25 C         138.4204  140.1187  162.7504 C.3     1  UNL1        0.0938
     26 C         138.6500  141.2754  161.8234 C.3     1  UNL1        0.1081
     27 C         136.5572  142.7998  154.7122 C.3     1  UNL1        0.0521
     28 C         137.3701  142.6709  155.9662 C.ar    1  UNL1        0.0593
     29 C         137.1405  141.5142  156.8932 C.ar    1  UNL1        0.0148
     30 C         137.9534  141.3853  158.1472 C.ar    1  UNL1        0.0039
     31 C         138.9959  142.4130  158.4742 C.ar    1  UNL1        0.0310
     32 C         139.8088  142.2840  159.7282 C.ar    1  UNL1        0.0493
     33 C         140.8513  143.3118  160.0552 C.ar    1  UNL1        0.0146
     34 C         141.0809  144.4685  159.1282 C.ar    1  UNL1        0.0028
     35 C         140.2680  144.5974  157.8742 C.ar    1  UNL1        0.0192
     36 C         139.2255  143.5697  157.5472 C.ar    1  UNL1        0.0821
     37 N         138.4126  143.6987  156.2932 N.ar    1  UNL1       -0.2496
@<TRIPOS>BOND
     1    27    28    1
     2    28    29   ar
     3    29    30   ar
     4    30    31   ar
     5    31    32   ar
     6    32    21    1
     7    21    22    1
     8    22    23    1
     9    23    24    1
    10    24    20    1
    11    20     1    1
    12     1     2    1
    13     2     3   ar
    14     3     4   ar
    15     4     5   ar
    16     5     6   ar
    17     6     7   ar
    18     7     8    1
    19     8     9    1
    20     9    10    1
    21    10    11   ar
    22    11    15    1
    23    15    16   am
    24    15    17    2
    25    11    12   ar
    26    12    13   ar
    27    13    14   ar
    28    24    25    1
    29    25    26    1
    30    32    33   ar
    31    33    34   ar
    32    34    35   ar
    33    35    36   ar
    34    36    37   ar
    35    37    28   ar
    36    36    31   ar
    37    26    21    1
    38     7     2   ar
    39    14    10   ar
    40    14     6    1
    41    16    18    1
    42    16    19    1
@<TRIPOS>MOLECULE
*****
 37 42 0 0 0
SMALL
GASTEIGER

@<TRIPOS>ATOM
      1 C         141.8252  137.9849  165.0114 C.3     1  UNL1        0.0468
      2 C         142.7491  139.1070  164.6405 C.ar    1  UNL1        0.0146
      3 C         144.2344  138.9102  164.7118 C.ar    1  UNL1       -0.0011
      4 C         145.1582  140.0322  164.3409 C.ar    1  UNL1        0.0014
      5 C         144.5967  141.3510  163.8987 C.ar    1  UNL1        0.0206
      6 C         143.1114  141.5477  163.8273 C.ar    1  UNL1        0.0989
      7 C         142.1876  140.4257  164.1983 C.ar    1  UNL1        0.1511
      8 O         140.7022  140.6224  164.1269 O.3     1  UNL1       -0.4678
      9 C         140.1407  141.9412  163.6847 C.3     1  UNL1        0.2510
     10 C         141.0646  143.0633  163.3138 C.ar    1  UNL1        0.1087
     11 C         140.8045  144.4642  162.8453 C.ar    1  UNL1        0.1514
     12 N         142.1292  145.1334  162.6270 N.ar    1  UNL1       -0.2192
     13 C         143.2079  144.1459  162.9606 C.ar    1  UNL1        0.1828
     14 N         142.5499  142.8665  163.3851 N.ar    1  UNL1       -0.2851
     15 C         139.4566  145.0868  162.6324 C.2     1  UNL1        0.2618
     16 N         139.2623  146.1010  161.5444 N.am    1  UNL1       -0.3240
     17 O         138.3029  144.6952  163.5073 O.2     1  UNL1       -0.2687
     18 H         140.0195  146.3581  160.9701 H       1  UNL1        0.1453
     19 H         138.3776  146.5097  161.4046 H       1  UNL1        0.1453
     20 C         141.3343  137.0378  163.9568 C.3     1  UNL1        0.0770
     21 N         140.3753  138.5629  159.8332 N.pl3   1  UNL1       -0.3046
     22 C         141.7943  138.2510  160.2063 C.3     1  UNL1        0.1081
     23 C         142.1140  137.7426  161.5809 C.3     1  UNL1        0.0938
     24 N         141.0147  137.5462  162.5823 N.3     1  UNL1       -0.2695
     25 C         139.5956  137.8582  162.2092 C.3     1  UNL1        0.0938
     26 C         139.2760  138.3665  160.8347 C.3     1  UNL1        0.1081
     27 C         140.0548  144.9711  157.3670 C.3     1  UNL1        0.0521
     28 C         140.0550  143.4961  157.6399 C.ar    1  UNL1        0.0593
     29 C         140.3747  142.9878  159.0144 C.ar    1  UNL1        0.0148
     30 C         140.3749  141.5128  159.2874 C.ar    1  UNL1        0.0039
     31 C         140.0555  140.5462  158.1858 C.ar    1  UNL1        0.0310
     32 C         140.0557  139.0712  158.4587 C.ar    1  UNL1        0.0493
     33 C         139.7362  138.1046  157.3570 C.ar    1  UNL1        0.0146
     34 C         139.4166  138.6129  155.9825 C.ar    1  UNL1        0.0028
     35 C         139.4163  140.0879  155.7095 C.ar    1  UNL1        0.0192
     36 C         139.7358  141.0545  156.8111 C.ar    1  UNL1        0.0821
     37 N         139.7356  142.5295  156.5382 N.ar    1  UNL1       -0.2496
@<TRIPOS>BOND
     1    27    28    1
     2    28    29   ar
     3    29    30   ar
     4    30    31   ar
     5    31    32   ar
     6    32    21    1
     7    21    22    1
     8    22    23    1
     9    23    24    1
    10    24    20    1
    11    20     1    1
    12     1     2    1
    13     2     3   ar
    14     3     4   ar
    15     4     5   ar
    16     5     6   ar
    17     6     7   ar
    18     7     8    1
    19     8     9    1
    20     9    10    1
    21    10    11   ar
    22    11    15    1
    23    15    16   am
    24    15    17    2
    25    11    12   ar
    26    12    13   ar
    27    13    14   ar
    28    24    25    1
    29    25    26    1
    30    32    33   ar
    31    33    34   ar
    32    34    35   ar
    33    35    36   ar
    34    36    37   ar
    35    37    28   ar
    36    36    31   ar
    37    26    21    1
    38     7     2   ar
    39    14    10   ar
    40    14     6    1
    41    16    18    1
    42    16    19    1
@<TRIPOS>MOLECULE
*****
 37 42 0 0 0
SMALL
GASTEIGER

@<TRIPOS>ATOM
      1 C         139.9638  145.0080  163.2199 C.3     1  UNL1        0.0468
      2 C         139.2628  143.6839  163.2934 C.ar    1  UNL1        0.0146
      3 C         138.4281  143.2121  162.1400 C.ar    1  UNL1       -0.0011
      4 C         137.7271  141.8881  162.2135 C.ar    1  UNL1        0.0014
      5 C         137.8609  141.0358  163.4406 C.ar    1  UNL1        0.0206
      6 C         138.6957  141.5075  164.5941 C.ar    1  UNL1        0.0989
      7 C         139.3966  142.8316  164.5205 C.ar    1  UNL1        0.1511
      8 O         140.2314  143.3034  165.6740 O.3     1  UNL1       -0.4678
      9 C         140.3652  142.4511  166.9011 C.3     1  UNL1        0.2510
     10 C         139.6642  141.1269  166.9746 C.ar    1  UNL1        0.1087
     11 C         139.6108  140.0777  168.0452 C.ar    1  UNL1        0.1514
     12 N         138.7429  138.9575  167.5534 N.ar    1  UNL1       -0.2192
     13 C         138.2601  139.3144  166.1788 C.ar    1  UNL1        0.1828
     14 N         138.8294  140.6552  165.8211 N.ar    1  UNL1       -0.2851
     15 C         140.3035  140.1382  169.3743 C.2     1  UNL1        0.2618
     16 N         141.7731  140.4310  169.4414 N.am    1  UNL1       -0.3240
     17 O         139.5267  139.9057  170.6362 O.2     1  UNL1       -0.2687
     18 H         142.2830  140.5836  168.6131 H       1  UNL1        0.1453
     19 H         142.2278  140.4707  170.3137 H       1  UNL1        0.1453
     20 C         141.4534  145.0597  163.0509 C.3     1  UNL1        0.0770
     21 N         143.4151  142.8095  159.6836 N.pl3   1  UNL1       -0.3046
     22 C         143.8830  142.6064  161.0942 C.3     1  UNL1        0.1081
     23 C         143.2291  143.3565  162.2167 C.3     1  UNL1        0.0938
     24 N         142.1073  144.3096  161.9285 N.3     1  UNL1       -0.2695
     25 C         141.6393  144.5127  160.5178 C.3     1  UNL1        0.0938
     26 C         142.2932  143.7626  159.3955 C.3     1  UNL1        0.1081
     27 C         141.7484  136.8573  156.6764 C.3     1  UNL1        0.0521
     28 C         142.3286  138.1578  157.1476 C.ar    1  UNL1        0.0593
     29 C         141.6747  138.9079  158.2700 C.ar    1  UNL1        0.0148
     30 C         142.2548  140.2084  158.7412 C.ar    1  UNL1        0.0039
     31 C         143.4888  140.7589  158.0900 C.ar    1  UNL1        0.0310
     32 C         144.0690  142.0594  158.5613 C.ar    1  UNL1        0.0493
     33 C         145.3031  142.6099  157.9100 C.ar    1  UNL1        0.0146
     34 C         145.9570  141.8599  156.7876 C.ar    1  UNL1        0.0028
     35 C         145.3768  140.5593  156.3164 C.ar    1  UNL1        0.0192
     36 C         144.1428  140.0089  156.9676 C.ar    1  UNL1        0.0821
     37 N         143.5627  138.7083  156.4964 N.ar    1  UNL1       -0.2496
@<TRIPOS>BOND
     1    27    28    1
     2    28    29   ar
     3    29    30   ar
     4    30    31   ar
     5    31    32   ar
     6    32    21    1
     7    21    22    1
     8    22    23    1
     9    23    24    1
    10    24    20    1
    11    20     1    1
    12     1     2    1
    13     2     3   ar
    14     3     4   ar
    15     4     5   ar
    16     5     6   ar
    17     6     7   ar
    18     7     8    1
    19     8     9    1
    20     9    10    1
    21    10    11   ar
    22    11    15    1
    23    15    16   am
    24    15    17    2
    25    11    12   ar
    26    12    13   ar
    27    13    14   ar
    28    24    25    1
    29    25    26    1
    30    32    33   ar
    31    33    34   ar
    32    34    35   ar
    33    35    36   ar
    34    36    37   ar
    35    37    28   ar
    36    36    31   ar
    37    26    21    1
    38     7     2   ar
    39    14    10   ar
    40    14     6    1
    41    16    18    1
    42    16    19    1
@<TRIPOS>MOLECULE
*****
 37 42 0 0 0
SMALL
GASTEIGER

@<TRIPOS>ATOM
      1 C         137.7829  142.7225  164.4170 C.3     1  UNL1        0.0468
      2 C         138.5674  141.4911  164.7610 C.ar    1  UNL1        0.0146
      3 C         138.3486  140.2228  163.9907 C.ar    1  UNL1       -0.0011
      4 C         139.1332  138.9915  164.3348 C.ar    1  UNL1        0.0014
      5 C         140.1365  139.0286  165.4492 C.ar    1  UNL1        0.0206
      6 C         140.3554  140.2969  166.2195 C.ar    1  UNL1        0.0989
      7 C         139.5708  141.5282  165.8754 C.ar    1  UNL1        0.1511
      8 O         139.7896  142.7966  166.6458 O.3     1  UNL1       -0.4678
      9 C         140.7930  142.8337  167.7601 C.3     1  UNL1        0.2510
     10 C         141.5775  141.6023  168.1042 C.ar    1  UNL1        0.1087
     11 C         142.6269  141.3386  169.1431 C.ar    1  UNL1        0.1514
     12 N         143.0566  139.9072  169.0149 N.ar    1  UNL1       -0.2192
     13 C         142.2728  139.2864  167.8967 C.ar    1  UNL1        0.1828
     14 N         141.3587  140.3340  167.3339 N.ar    1  UNL1       -0.2851
     15 C         143.1539  142.3318  170.1359 C.2     1  UNL1        0.2618
     16 N         144.5861  142.7727  170.0676 N.am    1  UNL1       -0.3240
     17 O         142.2490  142.8842  171.1969 O.2     1  UNL1       -0.2687
     18 H         145.1801  142.4101  169.3712 H       1  UNL1        0.1453
     19 H         144.9321  143.4246  170.7192 H       1  UNL1        0.1453
     20 C         138.4978  143.9904  164.0548 C.3     1  UNL1        0.0770
     21 N         140.2586  144.4851  159.9433 N.pl3   1  UNL1       -0.3046
     22 C         140.5863  145.4731  161.0233 C.3     1  UNL1        0.1081
     23 C         139.9993  145.3082  162.3939 C.3     1  UNL1        0.0938
     24 N         139.0847  144.1554  162.6844 N.3     1  UNL1       -0.2695
     25 C         138.7571  143.1673  161.6042 C.3     1  UNL1        0.0938
     26 C         139.3440  143.3323  160.2338 C.3     1  UNL1        0.1081
     27 C         145.3463  141.1052  156.7903 C.3     1  UNL1        0.0521
     28 C         144.2211  141.9915  157.2359 C.ar    1  UNL1        0.0593
     29 C         143.6342  141.8265  158.6064 C.ar    1  UNL1        0.0148
     30 C         142.5090  142.7127  159.0520 C.ar    1  UNL1        0.0039
     31 C         141.9708  143.7639  158.1272 C.ar    1  UNL1        0.0310
     32 C         140.8456  144.6501  158.5728 C.ar    1  UNL1        0.0493
     33 C         140.3073  145.7012  157.6479 C.ar    1  UNL1        0.0146
     34 C         140.8943  145.8661  156.2774 C.ar    1  UNL1        0.0028
     35 C         142.0194  144.9799  155.8318 C.ar    1  UNL1        0.0192
     36 C         142.5577  143.9288  156.7566 C.ar    1  UNL1        0.0821
     37 N         143.6829  143.0426  156.3110 N.ar    1  UNL1       -0.2496
@<TRIPOS>BOND
     1    27    28    1
     2    28    29   ar
     3    29    30   ar
     4    30    31   ar
     5    31    32   ar
     6    32    21    1
     7    21    22    1
     8    22    23    1
     9    23    24    1
    10    24    20    1
    11    20     1    1
    12     1     2    1
    13     2     3   ar
    14     3     4   ar
    15     4     5   ar
    16     5     6   ar
    17     6     7   ar
    18     7     8    1
    19     8     9    1
    20     9    10    1
    21    10    11   ar
    22    11    15    1
    23    15    16   am
    24    15    17    2
    25    11    12   ar
    26    12    13   ar
    27    13    14   ar
    28    24    25    1
    29    25    26    1
    30    32    33   ar
    31    33    34   ar
    32    34    35   ar
    33    35    36   ar
    34    36    37   ar
    35    37    28   ar
    36    36    31   ar
    37    26    21    1
    38     7     2   ar
    39    14    10   ar
    40    14     6    1
    41    16    18    1
    42    16    19    1
