@<TRIPOS>MOLECULE
*****
 28 30 0 0 0
SMALL
GASTEIGER

@<TRIPOS>ATOM
      1 N         139.1089  139.8948  165.0976 N.ar    1  UNL1       -0.3190
      2 C         138.9894  140.1796  166.5655 C.ar    1  UNL1        0.0823
      3 C         140.3289  139.9371  167.1953 C.ar    1  UNL1        0.0895
      4 C         141.2764  139.5024  166.1167 C.ar    1  UNL1        0.1028
      5 N         142.7283  139.1269  166.1476 N.ar    1  UNL1       -0.2425
      6 C         143.4262  138.7254  164.8821 C.ar    1  UNL1        0.0946
      7 C         142.6722  138.6992  163.5856 C.ar    1  UNL1       -0.0013
      8 C         143.3701  138.2976  162.3200 C.3     1  UNL1        0.0327
      9 C         141.2203  139.0746  163.5547 C.ar    1  UNL1        0.0160
     10 C         140.5224  139.4762  164.8203 C.ar    1  UNL1        0.0780
     11 C         140.6625  140.1006  168.6486 C.2     1  UNL1        0.2489
     12 O         139.6204  139.8288  169.6925 O.2     1  UNL1       -0.2700
     13 N         142.0385  140.5359  169.0579 N.am    1  UNL1       -0.2984
     14 H         142.7226  140.7143  168.3727 H       1  UNL1        0.1498
     15 C         142.3721  140.6994  170.5112 C.3     1  UNL1        0.1215
     16 C         141.9428  141.9353  171.2447 C.3     1  UNL1        0.1583
     17 O         140.5978  141.9853  171.9069 O.3     1  UNL1       -0.3802
     18 H         139.9030  141.9480  171.2311 H       1  UNL1        0.2105
     19 C         138.0083  140.0085  164.0849 C.3     1  UNL1        0.1518
     20 C         138.2016  143.4193  162.0651 C.ar    1  UNL1        0.2234
     21 N         138.3873  142.9103  160.6664 N.ar    1  UNL1       -0.1896
     22 C         138.4466  141.4341  160.4072 C.ar    1  UNL1        0.2012
     23 N         138.3203  140.4668  161.5466 N.ar    1  UNL1       -0.2265
     24 C         138.1346  140.9758  162.9453 C.ar    1  UNL1        0.0841
     25 C         138.0753  142.4520  163.2045 C.ar    1  UNL1        0.0468
     26 C         137.8896  142.9610  164.6033 C.3     1  UNL1        0.0372
     27 C         139.3860  145.7268  162.2147 C.3     1  UNL1        0.2542
     28 O         138.1423  144.8955  162.3243 O.3     1  UNL1       -0.4563
@<TRIPOS>BOND
     1    27    28    1
     2    28    20    1
     3    20    21   ar
     4    21    22   ar
     5    22    23   ar
     6    23    24   ar
     7    24    19    1
     8    19     1    1
     9     1     2   ar
    10     2     3   ar
    11     3    11    1
    12    11    12    2
    13    11    13   am
    14    13    15    1
    15    15    16    1
    16    16    17    1
    17     3     4   ar
    18     4     5   ar
    19     5     6   ar
    20     6     7   ar
    21     7     8    1
    22     7     9   ar
    23     9    10   ar
    24    24    25   ar
    25    25    26    1
    26    25    20   ar
    27    10     1   ar
    28    10     4   ar
    29    13    14    1
    30    17    18    1
@<TRIPOS>MOLECULE
*****
 28 30 0 0 0
SMALL
GASTEIGER

@<TRIPOS>ATOM
      1 N         138.7449  140.0510  162.9920 N.ar    1  UNL1       -0.3190
      2 C         138.6934  139.7290  161.5279 C.ar    1  UNL1        0.0823
      3 C         138.4234  141.0023  160.7825 C.ar    1  UNL1        0.0895
      4 C         138.3080  142.1113  161.7859 C.ar    1  UNL1        0.1028
      5 N         138.0477  143.5806  161.6325 N.ar    1  UNL1       -0.2425
      6 C         137.9862  144.4618  162.8447 C.ar    1  UNL1        0.0946
      7 C         138.1849  143.8739  164.2103 C.ar    1  UNL1       -0.0013
      8 C         138.1233  144.7553  165.4226 C.3     1  UNL1        0.0327
      9 C         138.4452  142.4047  164.3637 C.ar    1  UNL1        0.0160
     10 C         138.5068  141.5234  163.1515 C.ar    1  UNL1        0.0780
     11 C         138.2918  141.1422  159.2948 C.2     1  UNL1        0.2489
     12 O         138.0007  139.9368  158.4510 O.2     1  UNL1       -0.2700
     13 N         138.4513  142.4876  158.6509 N.am    1  UNL1       -0.2984
     14 H         138.6424  143.2788  159.2047 H       1  UNL1        0.1498
     15 C         138.3197  142.6275  157.1633 C.3     1  UNL1        0.1215
     16 C         136.9806  142.4563  156.5095 C.3     1  UNL1        0.1583
     17 O         136.2609  143.6481  155.9511 O.3     1  UNL1       -0.3802
     18 H         136.0132  144.2445  156.6748 H       1  UNL1        0.2105
     19 C         138.9913  139.0725  164.1018 C.3     1  UNL1        0.1518
     20 C         140.0073  139.8105  167.8666 C.ar    1  UNL1        0.2234
     21 N         141.4132  140.3025  167.6896 N.ar    1  UNL1       -0.1896
     22 C         142.0118  140.3845  166.3166 C.ar    1  UNL1        0.2012
     23 N         141.2046  139.9745  165.1207 N.ar    1  UNL1       -0.2265
     24 C         139.7987  139.4825  165.2978 C.ar    1  UNL1        0.0841
     25 C         139.2001  139.4005  166.6707 C.ar    1  UNL1        0.0468
     26 C         137.7941  138.9085  166.8477 C.3     1  UNL1        0.0372
     27 C         139.7749  140.7457  170.2793 C.3     1  UNL1        0.2542
     28 O         139.4087  139.7286  169.2395 O.3     1  UNL1       -0.4563
@<TRIPOS>BOND
     1    27    28    1
     2    28    20    1
     3    20    21   ar
     4    21    22   ar
     5    22    23   ar
     6    23    24   ar
     7    24    19    1
     8    19     1    1
     9     1     2   ar
    10     2     3   ar
    11     3    11    1
    12    11    12    2
    13    11    13   am
    14    13    15    1
    15    15    16    1
    16    16    17    1
    17     3     4   ar
    18     4     5   ar
    19     5     6   ar
    20     6     7   ar
    21     7     8    1
    22     7     9   ar
    23     9    10   ar
    24    24    25   ar
    25    25    26    1
    26    25    20   ar
    27    10     1   ar
    28    10     4   ar
    29    13    14    1
    30    17    18    1
@<TRIPOS>MOLECULE
*****
 28 30 0 0 0
SMALL
GASTEIGER

@<TRIPOS>ATOM
      1 N         140.4675  144.0458  164.4221 N.ar    1  UNL1       -0.3190
      2 C         139.6646  144.7616  163.3766 C.ar    1  UNL1        0.0823
      3 C         140.5184  144.9010  162.1513 C.ar    1  UNL1        0.0895
      4 C         141.8491  144.2715  162.4394 C.ar    1  UNL1        0.1028
      5 N         143.0853  144.1112  161.6052 N.ar    1  UNL1       -0.2425
      6 C         144.2901  143.4225  162.1744 C.ar    1  UNL1        0.0946
      7 C         144.2586  142.8939  163.5778 C.ar    1  UNL1       -0.0013
      8 C         145.4635  142.2051  164.1470 C.3     1  UNL1        0.0327
      9 C         143.0224  143.0541  164.4121 C.ar    1  UNL1        0.0160
     10 C         141.8176  143.7429  163.8429 C.ar    1  UNL1        0.0780
     11 C         140.1129  145.5552  160.8638 C.2     1  UNL1        0.2489
     12 O         139.1405  146.6972  160.8765 O.2     1  UNL1       -0.2700
     13 N         140.6797  145.0672  159.5635 N.am    1  UNL1       -0.2984
     14 H         141.3179  144.3177  159.5551 H       1  UNL1        0.1498
     15 C         140.2742  145.7214  158.2760 C.3     1  UNL1        0.1215
     16 C         141.3045  146.0116  157.2252 C.3     1  UNL1        0.1583
     17 O         142.7550  146.0906  157.5988 O.3     1  UNL1       -0.3802
     18 H         142.8978  146.8531  158.1811 H       1  UNL1        0.2105
     19 C         140.0021  143.6946  165.8041 C.3     1  UNL1        0.1518
     20 C         139.4125  139.7990  166.2810 C.ar    1  UNL1        0.2234
     21 N         140.4429  139.4820  167.3240 N.ar    1  UNL1       -0.1896
     22 C         141.3263  140.5691  167.8604 C.ar    1  UNL1        0.2012
     23 N         141.1794  141.9733  167.3538 N.ar    1  UNL1       -0.2265
     24 C         140.1490  142.2903  166.3108 C.ar    1  UNL1        0.0841
     25 C         139.2657  141.2032  165.7744 C.ar    1  UNL1        0.0468
     26 C         138.2353  141.5203  164.7313 C.3     1  UNL1        0.0372
     27 C         139.0033  137.8509  164.6115 C.3     1  UNL1        0.2542
     28 O         138.5291  138.7119  165.7446 O.3     1  UNL1       -0.4563
@<TRIPOS>BOND
     1    27    28    1
     2    28    20    1
     3    20    21   ar
     4    21    22   ar
     5    22    23   ar
     6    23    24   ar
     7    24    19    1
     8    19     1    1
     9     1     2   ar
    10     2     3   ar
    11     3    11    1
    12    11    12    2
    13    11    13   am
    14    13    15    1
    15    15    16    1
    16    16    17    1
    17     3     4   ar
    18     4     5   ar
    19     5     6   ar
    20     6     7   ar
    21     7     8    1
    22     7     9   ar
    23     9    10   ar
    24    24    25   ar
    25    25    26    1
    26    25    20   ar
    27    10     1   ar
    28    10     4   ar
    29    13    14    1
    30    17    18    1
@<TRIPOS>MOLECULE
*****
 28 30 0 0 0
SMALL
GASTEIGER

@<TRIPOS>ATOM
      1 N         140.6779  143.9484  164.3593 N.ar    1  UNL1       -0.3190
      2 C         139.9504  144.7156  163.2953 C.ar    1  UNL1        0.0823
      3 C         140.8553  144.8279  162.1042 C.ar    1  UNL1        0.0895
      4 C         142.1420  144.1302  162.4321 C.ar    1  UNL1        0.1028
      5 N         143.3993  143.9195  161.6417 N.ar    1  UNL1       -0.2425
      6 C         144.5470  143.1654  162.2450 C.ar    1  UNL1        0.0946
      7 C         144.4374  142.6218  163.6388 C.ar    1  UNL1       -0.0013
      8 C         145.5851  141.8677  164.2421 C.3     1  UNL1        0.0327
      9 C         143.1801  142.8325  164.4292 C.ar    1  UNL1        0.0160
     10 C         142.0324  143.5866  163.8259 C.ar    1  UNL1        0.0780
     11 C         140.5304  145.5169  160.8121 C.2     1  UNL1        0.2489
     12 O         139.3560  146.4465  160.7323 O.2     1  UNL1       -0.2700
     13 N         141.3802  145.2764  159.5995 N.am    1  UNL1       -0.2984
     14 H         142.1511  144.6663  159.6518 H       1  UNL1        0.1498
     15 C         141.0554  145.9654  158.3073 C.3     1  UNL1        0.1215
     16 C         141.9791  145.8314  157.1331 C.3     1  UNL1        0.1583
     17 O         142.9843  144.7188  157.0929 O.3     1  UNL1       -0.3802
     18 H         143.6369  144.8470  157.7991 H       1  UNL1        0.2105
     19 C         140.1447  143.6036  165.7183 C.3     1  UNL1        0.1518
     20 C         139.9774  140.2885  167.8937 C.ar    1  UNL1        0.2234
     21 N         139.5217  139.2968  166.8646 N.ar    1  UNL1       -0.1896
     22 C         139.2737  139.7408  165.4534 C.ar    1  UNL1        0.2012
     23 N         139.4813  141.1763  165.0713 N.ar    1  UNL1       -0.2265
     24 C         139.9370  142.1679  166.1004 C.ar    1  UNL1        0.0841
     25 C         140.1850  141.7240  167.5115 C.ar    1  UNL1        0.0468
     26 C         140.6407  142.7157  168.5406 C.3     1  UNL1        0.0372
     27 C         141.6133  139.4831  169.7444 C.3     1  UNL1        0.2542
     28 O         140.2254  139.8445  169.3048 O.3     1  UNL1       -0.4563
@<TRIPOS>BOND
     1    27    28    1
     2    28    20    1
     3    20    21   ar
     4    21    22   ar
     5    22    23   ar
     6    23    24   ar
     7    24    19    1
     8    19     1    1
     9     1     2   ar
    10     2     3   ar
    11     3    11    1
    12    11    12    2
    13    11    13   am
    14    13    15    1
    15    15    16    1
    16    16    17    1
    17     3     4   ar
    18     4     5   ar
    19     5     6   ar
    20     6     7   ar
    21     7     8    1
    22     7     9   ar
    23     9    10   ar
    24    24    25   ar
    25    25    26    1
    26    25    20   ar
    27    10     1   ar
    28    10     4   ar
    29    13    14    1
    30    17    18    1
@<TRIPOS>MOLECULE
*****
 28 30 0 0 0
SMALL
GASTEIGER

@<TRIPOS>ATOM
      1 N         139.3061  139.7027  165.1223 N.ar    1  UNL1       -0.3190
      2 C         139.0726  139.9530  166.5828 C.ar    1  UNL1        0.0823
      3 C         140.3969  139.8785  167.2832 C.ar    1  UNL1        0.0895
      4 C         141.4489  139.5823  166.2558 C.ar    1  UNL1        0.1028
      5 N         142.9335  139.3974  166.3637 N.ar    1  UNL1       -0.2425
      6 C         143.7439  139.1039  165.1362 C.ar    1  UNL1        0.0946
      7 C         143.0697  138.9952  163.8006 C.ar    1  UNL1       -0.0013
      8 C         143.8802  138.7017  162.5730 C.3     1  UNL1        0.0327
      9 C         141.5851  139.1801  163.6926 C.ar    1  UNL1        0.0160
     10 C         140.7747  139.4736  164.9202 C.ar    1  UNL1        0.0780
     11 C         140.6287  140.0672  168.7532 C.2     1  UNL1        0.2489
     12 O         139.4973  139.8829  169.7206 O.2     1  UNL1       -0.2700
     13 N         141.9920  140.4403  169.2557 N.am    1  UNL1       -0.2984
     14 H         142.7346  140.5613  168.6208 H       1  UNL1        0.1498
     15 C         142.2237  140.6290  170.7257 C.3     1  UNL1        0.1215
     16 C         141.8152  141.9098  171.3909 C.3     1  UNL1        0.1583
     17 O         140.3971  142.1022  171.8404 O.3     1  UNL1       -0.3802
     18 H         139.8132  142.1279  171.0662 H       1  UNL1        0.2105
     19 C         138.2555  139.6847  164.0519 C.3     1  UNL1        0.1518
     20 C         138.4686  141.6338  160.6014 C.ar    1  UNL1        0.2234
     21 N         138.0651  143.0135  161.0298 N.ar    1  UNL1       -0.1896
     22 C         137.7251  143.2837  162.4656 C.ar    1  UNL1        0.2012
     23 N         137.7886  142.1741  163.4729 N.ar    1  UNL1       -0.2265
     24 C         138.1920  140.7944  163.0445 C.ar    1  UNL1        0.0841
     25 C         138.5320  140.5243  161.6087 C.ar    1  UNL1        0.0468
     26 C         138.9355  139.1445  161.1804 C.3     1  UNL1        0.0372
     27 C         137.7442  140.8954  158.2181 C.3     1  UNL1        0.2542
     28 O         138.8086  141.3637  159.1656 O.3     1  UNL1       -0.4563
@<TRIPOS>BOND
     1    27    28    1
     2    28    20    1
     3    20    21   ar
     4    21    22   ar
     5    22    23   ar
     6    23    24   ar
     7    24    19    1
     8    19     1    1
     9     1     2   ar
    10     2     3   ar
    11     3    11    1
    12    11    12    2
    13    11    13   am
    14    13    15    1
    15    15    16    1
    16    16    17    1
    17     3     4   ar
    18     4     5   ar
    19     5     6   ar
    20     6     7   ar
    21     7     8    1
    22     7     9   ar
    23     9    10   ar
    24    24    25   ar
    25    25    26    1
    26    25    20   ar
    27    10     1   ar
    28    10     4   ar
    29    13    14    1
    30    17    18    1
@<TRIPOS>MOLECULE
*****
 28 30 0 0 0
SMALL
GASTEIGER

@<TRIPOS>ATOM
      1 N         139.1996  139.9370  165.6904 N.ar    1  UNL1       -0.3190
      2 C         140.0305  139.8181  166.9335 C.ar    1  UNL1        0.0823
      3 C         140.4008  141.2022  167.3775 C.ar    1  UNL1        0.0895
      4 C         139.7988  142.1765  166.4088 C.ar    1  UNL1        0.1028
      5 N         139.8307  143.6746  166.3415 N.ar    1  UNL1       -0.2425
      6 C         139.1202  144.3907  165.2314 C.ar    1  UNL1        0.0946
      7 C         138.3778  143.6087  164.1887 C.ar    1  UNL1       -0.0013
      8 C         137.6672  144.3249  163.0786 C.3     1  UNL1        0.0327
      9 C         138.3459  142.1106  164.2560 C.ar    1  UNL1        0.0160
     10 C         139.0564  141.3945  165.3661 C.ar    1  UNL1        0.0780
     11 C         141.2280  141.5509  168.5793 C.2     1  UNL1        0.2489
     12 O         140.7457  142.5921  169.5453 O.2     1  UNL1       -0.2700
     13 N         142.5375  140.8583  168.8151 N.am    1  UNL1       -0.2984
     14 H         142.8541  140.1749  168.1810 H       1  UNL1        0.1498
     15 C         143.3647  141.2070  170.0168 C.3     1  UNL1        0.1215
     16 C         144.0181  142.5538  170.1123 C.3     1  UNL1        0.1583
     17 O         143.3871  143.6367  170.9364 O.3     1  UNL1       -0.3802
     18 H         142.5410  143.8946  170.5381 H       1  UNL1        0.2105
     19 C         138.6146  138.7982  164.9087 C.3     1  UNL1        0.1518
     20 C         140.6188  137.9121  161.5999 C.ar    1  UNL1        0.2234
     21 N         139.6227  138.3081  160.5505 N.ar    1  UNL1       -0.1896
     22 C         138.2906  138.8674  160.9539 C.ar    1  UNL1        0.2012
     23 N         137.9545  139.0308  162.4066 N.ar    1  UNL1       -0.2265
     24 C         138.9506  138.6348  163.4559 C.ar    1  UNL1        0.0841
     25 C         140.2827  138.0755  163.0525 C.ar    1  UNL1        0.0468
     26 C         141.2787  137.6796  164.1019 C.3     1  UNL1        0.0372
     27 C         143.0623  138.2772  160.7964 C.3     1  UNL1        0.2542
     28 O         141.9508  137.3528  161.1965 O.3     1  UNL1       -0.4563
@<TRIPOS>BOND
     1    27    28    1
     2    28    20    1
     3    20    21   ar
     4    21    22   ar
     5    22    23   ar
     6    23    24   ar
     7    24    19    1
     8    19     1    1
     9     1     2   ar
    10     2     3   ar
    11     3    11    1
    12    11    12    2
    13    11    13   am
    14    13    15    1
    15    15    16    1
    16    16    17    1
    17     3     4   ar
    18     4     5   ar
    19     5     6   ar
    20     6     7   ar
    21     7     8    1
    22     7     9   ar
    23     9    10   ar
    24    24    25   ar
    25    25    26    1
    26    25    20   ar
    27    10     1   ar
    28    10     4   ar
    29    13    14    1
    30    17    18    1
@<TRIPOS>MOLECULE
*****
 28 30 0 0 0
SMALL
GASTEIGER

@<TRIPOS>ATOM
      1 N         142.8896  142.7099  164.9693 N.ar    1  UNL1       -0.3190
      2 C         142.5908  142.1063  166.3095 C.ar    1  UNL1        0.0823
      3 C         141.2106  142.5332  166.7128 C.ar    1  UNL1        0.0895
      4 C         140.6563  143.4007  165.6217 C.ar    1  UNL1        0.1028
      5 N         139.3408  144.1052  165.4703 N.ar    1  UNL1       -0.2425
      6 C         139.0630  144.9190  164.2412 C.ar    1  UNL1        0.0946
      7 C         140.1008  145.0282  163.1637 C.ar    1  UNL1       -0.0013
      8 C         139.8230  145.8420  161.9346 C.3     1  UNL1        0.0327
      9 C         141.4163  144.3236  163.3151 C.ar    1  UNL1        0.0160
     10 C         141.6941  143.5099  164.5442 C.ar    1  UNL1        0.0780
     11 C         140.5078  142.1585  167.9839 C.2     1  UNL1        0.2489
     12 O         140.2600  143.1964  169.0380 O.2     1  UNL1       -0.2700
     13 N         140.0529  140.7456  168.2010 N.am    1  UNL1       -0.2984
     14 H         140.2155  140.0643  167.5092 H       1  UNL1        0.1498
     15 C         139.3502  140.3709  169.4721 C.3     1  UNL1        0.1215
     16 C         140.1460  140.0512  170.7027 C.3     1  UNL1        0.1583
     17 O         139.6724  138.9856  171.6463 O.3     1  UNL1       -0.3802
     18 H         138.8405  139.2657  172.0591 H       1  UNL1        0.2105
     19 C         144.1608  142.5429  164.1907 C.3     1  UNL1        0.1518
     20 C         144.0765  139.7166  161.4059 C.ar    1  UNL1        0.2234
     21 N         144.0836  140.5483  160.1576 N.ar    1  UNL1       -0.1896
     22 C         144.1165  142.0448  160.2537 C.ar    1  UNL1        0.2012
     23 N         144.1422  142.7097  161.5980 N.ar    1  UNL1       -0.2265
     24 C         144.1351  141.8780  162.8463 C.ar    1  UNL1        0.0841
     25 C         144.1022  140.3815  162.7502 C.ar    1  UNL1        0.0468
     26 C         144.0951  139.5498  163.9985 C.3     1  UNL1        0.0372
     27 C         143.0960  137.5502  160.3593 C.3     1  UNL1        0.2542
     28 O         144.0436  138.2200  161.3098 O.3     1  UNL1       -0.4563
@<TRIPOS>BOND
     1    27    28    1
     2    28    20    1
     3    20    21   ar
     4    21    22   ar
     5    22    23   ar
     6    23    24   ar
     7    24    19    1
     8    19     1    1
     9     1     2   ar
    10     2     3   ar
    11     3    11    1
    12    11    12    2
    13    11    13   am
    14    13    15    1
    15    15    16    1
    16    16    17    1
    17     3     4   ar
    18     4     5   ar
    19     5     6   ar
    20     6     7   ar
    21     7     8    1
    22     7     9   ar
    23     9    10   ar
    24    24    25   ar
    25    25    26    1
    26    25    20   ar
    27    10     1   ar
    28    10     4   ar
    29    13    14    1
    30    17    18    1
@<TRIPOS>MOLECULE
*****
 28 30 0 0 0
SMALL
GASTEIGER

@<TRIPOS>ATOM
      1 N         139.1034  143.1341  164.6286 N.ar    1  UNL1       -0.3190
      2 C         139.6250  143.7142  165.9097 C.ar    1  UNL1        0.0823
      3 C         140.0659  142.5798  166.7865 C.ar    1  UNL1        0.0895
      4 C         139.8168  141.2986  166.0473 C.ar    1  UNL1        0.1028
      5 N         140.0548  139.8644  166.4163 N.ar    1  UNL1       -0.2425
      6 C         139.6979  138.7726  165.4516 C.ar    1  UNL1        0.0946
      7 C         139.1030  139.1152  164.1179 C.ar    1  UNL1       -0.0013
      8 C         138.7461  138.0233  163.1531 C.3     1  UNL1        0.0327
      9 C         138.8650  140.5494  163.7489 C.ar    1  UNL1        0.0160
     10 C         139.2219  141.6412  164.7136 C.ar    1  UNL1        0.0780
     11 C         140.6529  142.7047  168.1612 C.2     1  UNL1        0.2489
     12 O         140.1446  143.7575  169.1010 O.2     1  UNL1       -0.2700
     13 N         141.7483  141.7767  168.5962 N.am    1  UNL1       -0.2984
     14 H         142.0819  141.0857  167.9794 H       1  UNL1        0.1498
     15 C         142.3353  141.9016  169.9710 C.3     1  UNL1        0.1215
     16 C         141.5897  141.3642  171.1564 C.3     1  UNL1        0.1583
     17 O         140.5624  142.2137  171.8443 O.3     1  UNL1       -0.3802
     18 H         140.9974  142.9757  172.2579 H       1  UNL1        0.2105
     19 C         138.5589  143.9105  163.4664 C.3     1  UNL1        0.1518
     20 C         140.9405  143.7979  160.2937 C.ar    1  UNL1        0.2234
     21 N         140.0639  143.0860  159.3064 N.ar    1  UNL1       -0.1896
     22 C         138.6857  142.6489  159.7057 C.ar    1  UNL1        0.2012
     23 N         138.1840  142.9237  161.0923 N.ar    1  UNL1       -0.2265
     24 C         139.0606  143.6356  162.0796 C.ar    1  UNL1        0.0841
     25 C         140.4388  144.0727  161.6803 C.ar    1  UNL1        0.0468
     26 C         141.3153  144.7846  162.6677 C.3     1  UNL1        0.0372
     27 C         143.0483  143.5104  158.8022 C.3     1  UNL1        0.2542
     28 O         142.3187  144.2349  159.8944 O.3     1  UNL1       -0.4563
@<TRIPOS>BOND
     1    27    28    1
     2    28    20    1
     3    20    21   ar
     4    21    22   ar
     5    22    23   ar
     6    23    24   ar
     7    24    19    1
     8    19     1    1
     9     1     2   ar
    10     2     3   ar
    11     3    11    1
    12    11    12    2
    13    11    13   am
    14    13    15    1
    15    15    16    1
    16    16    17    1
    17     3     4   ar
    18     4     5   ar
    19     5     6   ar
    20     6     7   ar
    21     7     8    1
    22     7     9   ar
    23     9    10   ar
    24    24    25   ar
    25    25    26    1
    26    25    20   ar
    27    10     1   ar
    28    10     4   ar
    29    13    14    1
    30    17    18    1
@<TRIPOS>MOLECULE
*****
 28 30 0 0 0
SMALL
GASTEIGER

@<TRIPOS>ATOM
      1 N         138.4750  140.0781  163.2886 N.ar    1  UNL1       -0.3190
      2 C         138.4504  139.7121  161.8341 C.ar    1  UNL1        0.0823
      3 C         138.3079  140.9768  161.0403 C.ar    1  UNL1        0.0895
      4 C         138.2445  142.1245  162.0041 C.ar    1  UNL1        0.1028
      5 N         138.1060  143.6035  161.7960 N.ar    1  UNL1       -0.2425
      6 C         138.0708  144.5270  162.9775 C.ar    1  UNL1        0.0946
      7 C         138.1741  143.9715  164.3670 C.ar    1  UNL1       -0.0013
      8 C         138.1389  144.8952  165.5484 C.3     1  UNL1        0.0327
      9 C         138.3126  142.4925  164.5751 C.ar    1  UNL1        0.0160
     10 C         138.3477  141.5690  163.3937 C.ar    1  UNL1        0.0780
     11 C         138.2407  141.0765  159.5451 C.2     1  UNL1        0.2489
     12 O         137.9218  139.8611  158.7260 O.2     1  UNL1       -0.2700
     13 N         138.4923  142.3917  158.8690 N.am    1  UNL1       -0.2984
     14 H         138.7016  143.1895  159.4066 H       1  UNL1        0.1498
     15 C         138.4251  142.4914  157.3739 C.3     1  UNL1        0.1215
     16 C         137.1207  142.8004  156.7008 C.3     1  UNL1        0.1583
     17 O         136.1003  141.7177  156.5100 O.3     1  UNL1       -0.3802
     18 H         136.4463  141.0519  155.8954 H       1  UNL1        0.2105
     19 C         138.6042  139.1212  164.4365 C.3     1  UNL1        0.1518
     20 C         142.2413  138.8655  166.0038 C.ar    1  UNL1        0.2234
     21 N         142.0251  139.5290  167.3316 N.ar    1  UNL1       -0.1896
     22 C         140.6686  140.0566  167.6943 C.ar    1  UNL1        0.2012
     23 N         139.5283  139.9207  166.7293 N.ar    1  UNL1       -0.2265
     24 C         139.7445  139.2572  165.4016 C.ar    1  UNL1        0.0841
     25 C         141.1010  138.7296  165.0388 C.ar    1  UNL1        0.0468
     26 C         141.3172  138.0661  163.7110 C.3     1  UNL1        0.0372
     27 C         144.5482  139.1905  164.8538 C.3     1  UNL1        0.2542
     28 O         143.5978  138.3379  165.6411 O.3     1  UNL1       -0.4563
@<TRIPOS>BOND
     1    27    28    1
     2    28    20    1
     3    20    21   ar
     4    21    22   ar
     5    22    23   ar
     6    23    24   ar
     7    24    19    1
     8    19     1    1
     9     1     2   ar
    10     2     3   ar
    11     3    11    1
    12    11    12    2
    13    11    13   am
    14    13    15    1
    15    15    16    1
    16    16    17    1
    17     3     4   ar
    18     4     5   ar
    19     5     6   ar
    20     6     7   ar
    21     7     8    1
    22     7     9   ar
    23     9    10   ar
    24    24    25   ar
    25    25    26    1
    26    25    20   ar
    27    10     1   ar
    28    10     4   ar
    29    13    14    1
    30    17    18    1
