@<TRIPOS>MOLECULE
*****
 35 37 0 0 0
SMALL
GASTEIGER

@<TRIPOS>ATOM
      1 C         140.3000  144.4630  162.9121 C.2     1  UNL1        0.2961
      2 O         139.4774  145.4299  163.7114 O.2     1  UNL1       -0.2653
      3 N         141.2153  143.5013  163.6101 N.am    1  UNL1       -0.2276
      4 H         141.7551  142.8667  163.0855 H       1  UNL1        0.1732
      5 C         139.8532  143.2791  160.5576 C.ar    1  UNL1        0.0423
      6 C         139.8791  143.7235  159.1252 C.ar    1  UNL1        0.0438
      7 C         140.2490  145.1769  159.0973 C.ar    1  UNL1        0.1798
      8 O         140.4516  145.6308  160.5125 O.2     1  UNL1       -0.4458
      9 C         140.2070  144.4579  161.4150 C.ar    1  UNL1        0.1998
     10 C         138.8841  139.1369  162.0250 C.ar    1  UNL1       -0.0222
     11 C         137.7967  140.1629  161.9030 C.ar    1  UNL1       -0.0043
     12 C         138.1197  141.5436  161.4139 C.ar    1  UNL1       -0.0002
     13 C         139.5301  141.8984  161.0467 C.ar    1  UNL1        0.0032
     14 C         140.6175  140.8724  161.1687 C.ar    1  UNL1       -0.0002
     15 C         140.2945  139.4916  161.6578 C.ar    1  UNL1       -0.0043
     16 C         138.5610  137.7562  162.5141 C.3     1  UNL1        0.0264
     17 C         139.2174  137.2273  163.7548 C.3     1  UNL1        0.0047
     18 C         138.7474  137.6828  165.1044 C.3     1  UNL1        0.0003
     19 C         138.6882  140.2497  165.5019 C.3     1  UNL1        0.0000
     20 C         139.3346  138.9149  165.7267 C.3     1  UNL1        0.0000
     21 N         141.3082  143.5064  165.1072 N.am    1  UNL1       -0.2300
     22 C         141.8093  142.2923  165.8317 C.2     1  UNL1        0.2616
     23 O         142.2175  141.0731  165.0591 O.2     1  UNL1       -0.2686
     24 H         141.0403  144.3066  165.6143 H       1  UNL1        0.1731
     25 C         141.9022  142.2974  167.3288 C.ar    1  UNL1        0.0611
     26 C         143.2447  142.3383  167.9968 C.ar    1  UNL1        0.0081
     27 C         143.3377  142.3434  169.4939 C.ar    1  UNL1        0.0432
     28 C         142.0882  142.3075  170.3230 C.ar    1  UNL1        0.2040
     29 O         142.1811  142.3126  171.8201 O.3     1  UNL1       -0.5008
     30 C         140.7457  142.2665  169.6550 C.ar    1  UNL1        0.3232
     31 C         140.6528  142.2615  168.1579 C.ar    1  UNL1        0.0831
     32 H         143.0197  142.3381  172.2374 H       1  UNL1        0.2924
     33 N         139.4962  142.2307  170.4842 N.pl3   1  UNL1        0.0841
     34 O         138.6185  141.0144  170.4656 O.2     1  UNL1        0.0416
     35 O         139.1244  143.4110  171.3318 O.co2   1  UNL1       -0.5759
@<TRIPOS>UNITY_ATOM_ATTR
33 1
charge 1
35 1
charge -1
@<TRIPOS>BOND
     1    19    20    1
     2    20    18    1
     3    18    17    1
     4    17    16    1
     5    16    10    1
     6    10    11   ar
     7    11    12   ar
     8    12    13   ar
     9    13     5    1
    10     5     6   ar
    11     6     7   ar
    12     7     8   ar
    13     8     9   ar
    14     9     1    1
    15     1     2    2
    16     1     3   am
    17     3    21    1
    18    21    22   am
    19    22    23    2
    20    22    25    1
    21    25    26   ar
    22    26    27   ar
    23    27    28   ar
    24    28    29    1
    25    28    30   ar
    26    30    33    1
    27    33    34    2
    28    33    35    1
    29    30    31   ar
    30    13    14   ar
    31    14    15   ar
    32    15    10   ar
    33     9     5   ar
    34    31    25   ar
    35     3     4    1
    36    21    24    1
    37    29    32    1
@<TRIPOS>MOLECULE
*****
 35 37 0 0 0
SMALL
GASTEIGER

@<TRIPOS>ATOM
      1 C         144.1708  141.9929  162.8875 C.2     1  UNL1        0.2961
      2 O         145.0761  141.0449  163.6169 O.2     1  UNL1       -0.2653
      3 N         143.2768  142.9186  163.6580 N.am    1  UNL1       -0.2276
      4 H         142.6826  143.5407  163.1793 H       1  UNL1        0.1732
      5 C         143.1673  141.3201  160.5031 C.ar    1  UNL1        0.0423
      6 C         143.5332  141.6116  159.0779 C.ar    1  UNL1        0.0438
      7 C         144.7516  142.4866  159.0817 C.ar    1  UNL1        0.1798
      8 O         145.1387  142.7359  160.5093 O.2     1  UNL1       -0.4458
      9 C         144.1596  142.0150  161.3877 C.ar    1  UNL1        0.1998
     10 C         139.7015  138.8032  161.8825 C.ar    1  UNL1       -0.0222
     11 C         139.6877  140.2862  162.1070 C.ar    1  UNL1       -0.0043
     12 C         140.8429  141.1252  161.6472 C.ar    1  UNL1       -0.0002
     13 C         142.0121  140.4811  160.9629 C.ar    1  UNL1        0.0032
     14 C         142.0259  138.9981  160.7383 C.ar    1  UNL1       -0.0002
     15 C         140.8706  138.1591  161.1981 C.ar    1  UNL1       -0.0043
     16 C         138.5462  137.9642  162.3423 C.3     1  UNL1        0.0264
     17 C         138.5823  137.3141  163.6936 C.3     1  UNL1        0.0047
     18 C         139.5709  137.7771  164.7224 C.3     1  UNL1        0.0003
     19 C         142.1325  138.2106  164.7329 C.3     1  UNL1        0.0000
     20 C         140.9769  137.2549  164.6999 C.3     1  UNL1        0.0000
     21 N         143.2879  142.8965  165.1578 N.am    1  UNL1       -0.2300
     22 C         142.1187  142.3312  165.9083 C.2     1  UNL1        0.2616
     23 O         140.9382  141.7880  165.1590 O.2     1  UNL1       -0.2686
     24 H         144.0627  143.2530  165.6496 H       1  UNL1        0.1731
     25 C         142.1299  142.3091  167.4081 C.ar    1  UNL1        0.0611
     26 C         143.4341  142.3275  168.1487 C.ar    1  UNL1        0.0081
     27 C         143.4454  142.3054  169.6485 C.ar    1  UNL1        0.0432
     28 C         142.1523  142.2648  170.4077 C.ar    1  UNL1        0.2040
     29 O         142.1635  142.2427  171.9075 O.3     1  UNL1       -0.5008
     30 C         140.8480  142.2464  169.6670 C.ar    1  UNL1        0.3232
     31 C         140.8368  142.2686  168.1672 C.ar    1  UNL1        0.0831
     32 H         142.9782  142.2542  172.3702 H       1  UNL1        0.2924
     33 N         139.5549  142.2059  170.4262 N.pl3   1  UNL1        0.0841
     34 O         138.6595  141.0072  170.3189 O.2     1  UNL1        0.0416
     35 O         139.1572  143.3640  171.2925 O.co2   1  UNL1       -0.5759
@<TRIPOS>UNITY_ATOM_ATTR
33 1
charge 1
35 1
charge -1
@<TRIPOS>BOND
     1    19    20    1
     2    20    18    1
     3    18    17    1
     4    17    16    1
     5    16    10    1
     6    10    11   ar
     7    11    12   ar
     8    12    13   ar
     9    13     5    1
    10     5     6   ar
    11     6     7   ar
    12     7     8   ar
    13     8     9   ar
    14     9     1    1
    15     1     2    2
    16     1     3   am
    17     3    21    1
    18    21    22   am
    19    22    23    2
    20    22    25    1
    21    25    26   ar
    22    26    27   ar
    23    27    28   ar
    24    28    29    1
    25    28    30   ar
    26    30    33    1
    27    33    34    2
    28    33    35    1
    29    30    31   ar
    30    13    14   ar
    31    14    15   ar
    32    15    10   ar
    33     9     5   ar
    34    31    25   ar
    35     3     4    1
    36    21    24    1
    37    29    32    1
@<TRIPOS>MOLECULE
*****
 35 37 0 0 0
SMALL
GASTEIGER

@<TRIPOS>ATOM
      1 C         142.9477  138.6104  163.1742 C.2     1  UNL1        0.2961
      2 O         144.2601  139.1728  163.6342 O.2     1  UNL1       -0.2653
      3 N         141.8680  138.3135  164.1721 N.am    1  UNL1       -0.2276
      4 H         141.0067  137.9444  163.8703 H       1  UNL1        0.1732
      5 C         141.6220  138.9354  160.8760 C.ar    1  UNL1        0.0423
      6 C         141.7663  138.3977  159.4831 C.ar    1  UNL1        0.0438
      7 C         142.9487  137.4748  159.4626 C.ar    1  UNL1        0.1798
      8 O         143.5352  137.4422  160.8428 O.2     1  UNL1       -0.4458
      9 C         142.7152  138.3449  161.7163 C.ar    1  UNL1        0.1998
     10 C         138.4641  141.8145  162.2859 C.ar    1  UNL1       -0.0222
     11 C         139.8696  142.2907  162.0679 C.ar    1  UNL1       -0.0043
     12 C         140.9223  141.3310  161.5979 C.ar    1  UNL1       -0.0002
     13 C         140.5694  139.8951  161.3459 C.ar    1  UNL1        0.0032
     14 C         139.1638  139.4189  161.5639 C.ar    1  UNL1       -0.0002
     15 C         138.1111  140.3786  162.0339 C.ar    1  UNL1       -0.0043
     16 C         137.4114  142.7742  162.7558 C.3     1  UNL1        0.0264
     17 C         137.8057  144.1266  163.2710 C.3     1  UNL1        0.0047
     18 C         137.8028  144.3974  164.7463 C.3     1  UNL1        0.0003
     19 C         140.4001  144.3317  164.7634 C.3     1  UNL1        0.0000
     20 C         139.0998  144.4909  165.4942 C.3     1  UNL1        0.0000
     21 N         142.1005  138.5791  165.6300 N.am    1  UNL1       -0.2300
     22 C         141.4029  139.7228  166.3047 C.2     1  UNL1        0.2616
     23 O         140.4727  140.6011  165.5215 O.2     1  UNL1       -0.2686
     24 H         142.7110  138.0026  166.1441 H       1  UNL1        0.1731
     25 C         141.6354  139.9883  167.7626 C.ar    1  UNL1        0.0611
     26 C         142.5818  139.1231  168.5409 C.ar    1  UNL1        0.0081
     27 C         142.8143  139.3886  169.9988 C.ar    1  UNL1        0.0432
     28 C         142.1004  140.5193  170.6784 C.ar    1  UNL1        0.2040
     29 O         142.3329  140.7848  172.1363 O.3     1  UNL1       -0.5008
     30 C         141.1539  141.3845  169.9001 C.ar    1  UNL1        0.3232
     31 C         140.9214  141.1190  168.4422 C.ar    1  UNL1        0.0831
     32 H         142.9241  140.2443  172.6225 H       1  UNL1        0.2924
     33 N         140.4400  142.5152  170.5797 N.pl3   1  UNL1        0.0841
     34 O         140.0169  143.7179  169.7894 O.2     1  UNL1        0.0416
     35 O         140.1492  142.4432  172.0494 O.co2   1  UNL1       -0.5759
@<TRIPOS>UNITY_ATOM_ATTR
33 1
charge 1
35 1
charge -1
@<TRIPOS>BOND
     1    19    20    1
     2    20    18    1
     3    18    17    1
     4    17    16    1
     5    16    10    1
     6    10    11   ar
     7    11    12   ar
     8    12    13   ar
     9    13     5    1
    10     5     6   ar
    11     6     7   ar
    12     7     8   ar
    13     8     9   ar
    14     9     1    1
    15     1     2    2
    16     1     3   am
    17     3    21    1
    18    21    22   am
    19    22    23    2
    20    22    25    1
    21    25    26   ar
    22    26    27   ar
    23    27    28   ar
    24    28    29    1
    25    28    30   ar
    26    30    33    1
    27    33    34    2
    28    33    35    1
    29    30    31   ar
    30    13    14   ar
    31    14    15   ar
    32    15    10   ar
    33     9     5   ar
    34    31    25   ar
    35     3     4    1
    36    21    24    1
    37    29    32    1
@<TRIPOS>MOLECULE
*****
 35 37 0 0 0
SMALL
GASTEIGER

@<TRIPOS>ATOM
      1 C         142.4483  138.6288  163.0603 C.2     1  UNL1        0.2961
      2 O         141.2459  138.0737  163.7649 O.2     1  UNL1       -0.2653
      3 N         143.5470  139.2771  163.8492 N.am    1  UNL1       -0.2276
      4 H         144.3360  139.6414  163.3867 H       1  UNL1        0.1732
      5 C         142.2497  139.6345  160.5916 C.ar    1  UNL1        0.0423
      6 C         142.4867  139.1050  159.2084 C.ar    1  UNL1        0.0438
      7 C         142.9352  137.6786  159.3286 C.ar    1  UNL1        0.1798
      8 O         142.9754  137.3266  160.7862 O.2     1  UNL1       -0.4458
      9 C         142.5517  138.5355  161.5667 C.ar    1  UNL1        0.1998
     10 C         140.8743  143.7907  161.6332 C.ar    1  UNL1       -0.0222
     11 C         139.9362  142.8388  160.9521 C.ar    1  UNL1       -0.0043
     12 C         140.3947  141.4535  160.6049 C.ar    1  UNL1       -0.0002
     13 C         141.7913  141.0199  160.9388 C.ar    1  UNL1        0.0032
     14 C         142.7294  141.9717  161.6199 C.ar    1  UNL1       -0.0002
     15 C         142.2709  143.3571  161.9671 C.ar    1  UNL1       -0.0043
     16 C         140.4158  145.1760  161.9804 C.3     1  UNL1        0.0264
     17 C         139.2383  145.3707  162.8889 C.3     1  UNL1        0.0047
     18 C         139.2493  144.7805  164.2679 C.3     1  UNL1        0.0003
     19 C         137.6797  142.7611  163.8116 C.3     1  UNL1        0.0000
     20 C         138.1355  143.8760  164.7055 C.3     1  UNL1        0.0000
     21 N         143.4435  139.3704  165.3427 N.am    1  UNL1       -0.2300
     22 C         142.6621  140.4854  165.9721 C.2     1  UNL1        0.2616
     23 O         141.9842  141.5071  165.1082 O.2     1  UNL1       -0.2686
     24 H         143.8884  138.6998  165.9098 H       1  UNL1        0.1731
     25 C         142.5587  140.5787  167.4657 C.ar    1  UNL1        0.0611
     26 C         142.5559  139.3300  168.2968 C.ar    1  UNL1        0.0081
     27 C         142.4525  139.4233  169.7903 C.ar    1  UNL1        0.0432
     28 C         142.3517  140.7653  170.4527 C.ar    1  UNL1        0.2040
     29 O         142.2483  140.8586  171.9463 O.3     1  UNL1       -0.5008
     30 C         142.3545  142.0141  169.6216 C.ar    1  UNL1        0.3232
     31 C         142.4579  141.9207  168.1281 C.ar    1  UNL1        0.0831
     32 H         142.2466  140.0786  172.4654 H       1  UNL1        0.2924
     33 N         142.2537  143.3561  170.2840 N.pl3   1  UNL1        0.0841
     34 O         143.4373  143.9255  171.0086 O.2     1  UNL1        0.0416
     35 O         140.9695  144.1286  170.2220 O.co2   1  UNL1       -0.5759
@<TRIPOS>UNITY_ATOM_ATTR
33 1
charge 1
35 1
charge -1
@<TRIPOS>BOND
     1    19    20    1
     2    20    18    1
     3    18    17    1
     4    17    16    1
     5    16    10    1
     6    10    11   ar
     7    11    12   ar
     8    12    13   ar
     9    13     5    1
    10     5     6   ar
    11     6     7   ar
    12     7     8   ar
    13     8     9   ar
    14     9     1    1
    15     1     2    2
    16     1     3   am
    17     3    21    1
    18    21    22   am
    19    22    23    2
    20    22    25    1
    21    25    26   ar
    22    26    27   ar
    23    27    28   ar
    24    28    29    1
    25    28    30   ar
    26    30    33    1
    27    33    34    2
    28    33    35    1
    29    30    31   ar
    30    13    14   ar
    31    14    15   ar
    32    15    10   ar
    33     9     5   ar
    34    31    25   ar
    35     3     4    1
    36    21    24    1
    37    29    32    1
@<TRIPOS>MOLECULE
*****
 35 37 0 0 0
SMALL
GASTEIGER

@<TRIPOS>ATOM
      1 C         142.9183  139.3812  163.2429 C.2     1  UNL1        0.2961
      2 O         144.2488  139.6986  163.8589 O.2     1  UNL1       -0.2653
      3 N         141.6644  139.5188  164.0544 N.am    1  UNL1       -0.2276
      4 H         140.7912  139.3105  163.6501 H       1  UNL1        0.1732
      5 C         142.3790  139.7503  160.6510 C.ar    1  UNL1        0.0423
      6 C         142.4662  138.9005  159.4181 C.ar    1  UNL1        0.0438
      7 C         142.9831  137.5511  159.8207 C.ar    1  UNL1        0.1798
      8 O         143.2154  137.5670  161.3025 O.2     1  UNL1       -0.4458
      9 C         142.8420  138.9261  161.8157 C.ar    1  UNL1        0.1998
     10 C         140.9751  144.0221  160.8255 C.ar    1  UNL1       -0.0222
     11 C         142.3984  143.6862  161.1589 C.ar    1  UNL1       -0.0043
     12 C         142.8664  142.2623  161.1007 C.ar    1  UNL1       -0.0002
     13 C         141.9110  141.1742  160.7092 C.ar    1  UNL1        0.0032
     14 C         140.4877  141.5101  160.3758 C.ar    1  UNL1       -0.0002
     15 C         140.0197  142.9340  160.4339 C.ar    1  UNL1       -0.0043
     16 C         140.5071  145.4461  160.8836 C.3     1  UNL1        0.0264
     17 C         139.7047  145.9245  162.0571 C.3     1  UNL1        0.0047
     18 C         139.4566  145.0092  163.2193 C.3     1  UNL1        0.0003
     19 C         137.9501  143.2341  164.3724 C.3     1  UNL1        0.0000
     20 C         138.1211  144.3450  163.3791 C.3     1  UNL1        0.0000
     21 N         141.7406  139.9739  165.4816 N.am    1  UNL1       -0.2300
     22 C         140.4827  140.2762  166.2407 C.2     1  UNL1        0.2616
     23 O         139.1485  140.1234  165.5726 O.2     1  UNL1       -0.2686
     24 H         142.6163  140.0741  165.9202 H       1  UNL1        0.1731
     25 C         140.5590  140.7312  167.6680 C.ar    1  UNL1        0.0611
     26 C         139.4888  140.3326  168.6405 C.ar    1  UNL1        0.0081
     27 C         139.5651  140.7876  170.0678 C.ar    1  UNL1        0.0432
     28 C         140.7115  141.6413  170.5226 C.ar    1  UNL1        0.2040
     29 O         140.7878  142.0964  171.9499 O.3     1  UNL1       -0.5008
     30 C         141.7818  142.0400  169.5500 C.ar    1  UNL1        0.3232
     31 C         141.7055  141.5849  168.1228 C.ar    1  UNL1        0.0831
     32 H         140.1193  141.8474  172.5574 H       1  UNL1        0.2924
     33 N         142.9282  142.8936  170.0048 N.pl3   1  UNL1        0.0841
     34 O         142.6797  144.0615  170.9127 O.2     1  UNL1        0.0416
     35 O         144.3232  142.5795  169.5517 O.co2   1  UNL1       -0.5759
@<TRIPOS>UNITY_ATOM_ATTR
33 1
charge 1
35 1
charge -1
@<TRIPOS>BOND
     1    19    20    1
     2    20    18    1
     3    18    17    1
     4    17    16    1
     5    16    10    1
     6    10    11   ar
     7    11    12   ar
     8    12    13   ar
     9    13     5    1
    10     5     6   ar
    11     6     7   ar
    12     7     8   ar
    13     8     9   ar
    14     9     1    1
    15     1     2    2
    16     1     3   am
    17     3    21    1
    18    21    22   am
    19    22    23    2
    20    22    25    1
    21    25    26   ar
    22    26    27   ar
    23    27    28   ar
    24    28    29    1
    25    28    30   ar
    26    30    33    1
    27    33    34    2
    28    33    35    1
    29    30    31   ar
    30    13    14   ar
    31    14    15   ar
    32    15    10   ar
    33     9     5   ar
    34    31    25   ar
    35     3     4    1
    36    21    24    1
    37    29    32    1
@<TRIPOS>MOLECULE
*****
 35 37 0 0 0
SMALL
GASTEIGER

@<TRIPOS>ATOM
      1 C         138.7954  142.2089  161.8259 C.2     1  UNL1        0.2961
      2 O         137.4233  142.4676  162.3743 O.2     1  UNL1       -0.2653
      3 N         139.8348  141.5520  162.6850 N.am    1  UNL1       -0.2276
      4 H         140.7353  141.3823  162.3252 H       1  UNL1        0.1732
      5 C         140.5068  142.7645  159.8492 C.ar    1  UNL1        0.0423
      6 C         140.3710  143.1727  158.4122 C.ar    1  UNL1        0.0438
      7 C         138.9084  143.2678  158.0935 C.ar    1  UNL1        0.1798
      8 O         138.1401  142.9183  159.3335 O.2     1  UNL1       -0.4458
      9 C         139.1280  142.6073  160.4186 C.ar    1  UNL1        0.1998
     10 C         144.3717  142.1241  162.0632 C.ar    1  UNL1       -0.0222
     11 C         143.6510  143.4347  162.1761 C.ar    1  UNL1       -0.0043
     12 C         142.3627  143.6482  161.4381 C.ar    1  UNL1       -0.0002
     13 C         141.7951  142.5510  160.5872 C.ar    1  UNL1        0.0032
     14 C         142.5159  141.2404  160.4743 C.ar    1  UNL1       -0.0002
     15 C         143.8042  141.0270  161.2123 C.ar    1  UNL1       -0.0043
     16 C         145.6601  141.9106  162.8013 C.3     1  UNL1        0.0264
     17 C         145.6923  141.0288  164.0142 C.3     1  UNL1        0.0047
     18 C         144.4421  140.8049  164.8122 C.3     1  UNL1        0.0003
     19 C         143.0737  138.9991  166.0837 C.3     1  UNL1        0.0000
     20 C         143.8152  139.4429  164.8576 C.3     1  UNL1        0.0000
     21 N         139.5022  141.1537  164.0924 N.am    1  UNL1       -0.2300
     22 C         140.3312  141.6660  165.2327 C.2     1  UNL1        0.2616
     23 O         141.4928  142.5767  164.9657 O.2     1  UNL1       -0.2686
     24 H         138.7398  140.5560  164.2677 H       1  UNL1        0.1731
     25 C         139.9987  141.2677  166.6401 C.ar    1  UNL1        0.0611
     26 C         139.2599  139.9890  166.9029 C.ar    1  UNL1        0.0081
     27 C         138.9273  139.5906  168.3103 C.ar    1  UNL1        0.0432
     28 C         139.3335  140.4709  169.4548 C.ar    1  UNL1        0.2040
     29 O         139.0009  140.0726  170.8622 O.3     1  UNL1       -0.5008
     30 C         140.0723  141.7497  169.1920 C.ar    1  UNL1        0.3232
     31 C         140.4048  142.1481  167.7846 C.ar    1  UNL1        0.0831
     32 H         138.5394  139.2738  171.0264 H       1  UNL1        0.2924
     33 N         140.4784  142.6301  170.3365 N.pl3   1  UNL1        0.0841
     34 O         140.6402  142.0482  171.7096 O.2     1  UNL1        0.0416
     35 O         140.7228  144.0923  170.1080 O.co2   1  UNL1       -0.5759
@<TRIPOS>UNITY_ATOM_ATTR
33 1
charge 1
35 1
charge -1
@<TRIPOS>BOND
     1    19    20    1
     2    20    18    1
     3    18    17    1
     4    17    16    1
     5    16    10    1
     6    10    11   ar
     7    11    12   ar
     8    12    13   ar
     9    13     5    1
    10     5     6   ar
    11     6     7   ar
    12     7     8   ar
    13     8     9   ar
    14     9     1    1
    15     1     2    2
    16     1     3   am
    17     3    21    1
    18    21    22   am
    19    22    23    2
    20    22    25    1
    21    25    26   ar
    22    26    27   ar
    23    27    28   ar
    24    28    29    1
    25    28    30   ar
    26    30    33    1
    27    33    34    2
    28    33    35    1
    29    30    31   ar
    30    13    14   ar
    31    14    15   ar
    32    15    10   ar
    33     9     5   ar
    34    31    25   ar
    35     3     4    1
    36    21    24    1
    37    29    32    1
@<TRIPOS>MOLECULE
*****
 35 37 0 0 0
SMALL
GASTEIGER

@<TRIPOS>ATOM
      1 C         139.5509  143.9128  162.0139 C.2     1  UNL1        0.2961
      2 O         138.0806  143.7013  162.2233 O.2     1  UNL1       -0.2653
      3 N         140.5254  143.5154  163.0827 N.am    1  UNL1       -0.2276
      4 H         141.4903  143.6541  162.9454 H       1  UNL1        0.1732
      5 C         141.0680  143.9254  159.8132 C.ar    1  UNL1        0.0423
      6 C         141.2604  144.8689  158.6631 C.ar    1  UNL1        0.0438
      7 C         140.3580  146.0482  158.8749 C.ar    1  UNL1        0.1798
      8 O         139.6077  145.8335  160.1559 O.2     1  UNL1       -0.4458
      9 C         140.0466  144.5216  160.7358 C.ar    1  UNL1        0.1998
     10 C         143.1835  139.9964  160.3937 C.ar    1  UNL1       -0.0222
     11 C         141.8433  140.0344  159.7212 C.ar    1  UNL1       -0.0043
     12 C         141.1381  141.3441  159.5277 C.ar    1  UNL1       -0.0002
     13 C         141.7732  142.6158  160.0067 C.ar    1  UNL1        0.0032
     14 C         143.1134  142.5777  160.6792 C.ar    1  UNL1       -0.0002
     15 C         143.8186  141.2681  160.8727 C.ar    1  UNL1       -0.0043
     16 C         143.8887  138.6867  160.5873 C.3     1  UNL1        0.0264
     17 C         143.8380  137.9971  161.9183 C.3     1  UNL1        0.0047
     18 C         142.6058  138.0964  162.7680 C.3     1  UNL1        0.0003
     19 C         143.7551  139.2826  164.7735 C.3     1  UNL1        0.0000
     20 C         142.5527  139.0790  163.9002 C.3     1  UNL1        0.0000
     21 N         140.0297  142.9065  164.3609 N.am    1  UNL1       -0.2300
     22 C         141.0078  142.4365  165.3965 C.2     1  UNL1        0.2616
     23 O         142.4815  142.5754  165.1540 O.2     1  UNL1       -0.2686
     24 H         139.0625  142.8153  164.5201 H       1  UNL1        0.1731
     25 C         140.5122  141.8277  166.6746 C.ar    1  UNL1        0.0611
     26 C         139.7961  140.5099  166.6494 C.ar    1  UNL1        0.0081
     27 C         139.3004  139.9010  167.9275 C.ar    1  UNL1        0.0432
     28 C         139.5208  140.6099  169.2309 C.ar    1  UNL1        0.2040
     29 O         139.0252  140.0010  170.5090 O.3     1  UNL1       -0.5008
     30 C         140.2370  141.9277  169.2562 C.ar    1  UNL1        0.3232
     31 C         140.7326  142.5366  167.9780 C.ar    1  UNL1        0.0831
     32 H         138.5779  139.1778  170.4933 H       1  UNL1        0.2924
     33 N         140.4574  142.6366  170.5595 N.pl3   1  UNL1        0.0841
     34 O         139.2828  143.0666  171.3874 O.2     1  UNL1        0.0416
     35 O         141.8524  142.9156  171.0350 O.co2   1  UNL1       -0.5759
@<TRIPOS>UNITY_ATOM_ATTR
33 1
charge 1
35 1
charge -1
@<TRIPOS>BOND
     1    19    20    1
     2    20    18    1
     3    18    17    1
     4    17    16    1
     5    16    10    1
     6    10    11   ar
     7    11    12   ar
     8    12    13   ar
     9    13     5    1
    10     5     6   ar
    11     6     7   ar
    12     7     8   ar
    13     8     9   ar
    14     9     1    1
    15     1     2    2
    16     1     3   am
    17     3    21    1
    18    21    22   am
    19    22    23    2
    20    22    25    1
    21    25    26   ar
    22    26    27   ar
    23    27    28   ar
    24    28    29    1
    25    28    30   ar
    26    30    33    1
    27    33    34    2
    28    33    35    1
    29    30    31   ar
    30    13    14   ar
    31    14    15   ar
    32    15    10   ar
    33     9     5   ar
    34    31    25   ar
    35     3     4    1
    36    21    24    1
    37    29    32    1
@<TRIPOS>MOLECULE
*****
 35 37 0 0 0
SMALL
GASTEIGER

@<TRIPOS>ATOM
      1 C         139.2921  137.8078  163.9152 C.2     1  UNL1        0.2961
      2 O         140.7870  137.6871  163.8860 O.2     1  UNL1       -0.2653
      3 N         138.5132  137.7897  162.6335 N.am    1  UNL1       -0.2276
      4 H         137.5320  137.8690  162.6527 H       1  UNL1        0.1732
      5 C         138.4058  139.2157  166.0074 C.ar    1  UNL1        0.0423
      6 C         137.6295  138.8942  167.2499 C.ar    1  UNL1        0.0438
      7 C         137.3202  137.4265  167.2366 C.ar    1  UNL1        0.1798
      8 O         137.9054  136.8409  165.9857 O.2     1  UNL1       -0.4458
      9 C         138.5763  137.9467  165.2261 C.ar    1  UNL1        0.1998
     10 C         139.9517  143.2747  164.8304 C.ar    1  UNL1       -0.0222
     11 C         140.6177  142.5100  165.9356 C.ar    1  UNL1       -0.0043
     12 C         140.1024  141.1570  166.3279 C.ar    1  UNL1       -0.0002
     13 C         138.9211  140.5687  165.6151 C.ar    1  UNL1        0.0032
     14 C         138.2550  141.3334  164.5099 C.ar    1  UNL1       -0.0002
     15 C         138.7703  142.6864  164.1175 C.ar    1  UNL1       -0.0043
     16 C         140.4670  144.6276  164.4381 C.3     1  UNL1        0.0264
     17 C         141.1075  144.8261  163.0963 C.3     1  UNL1        0.0047
     18 C         142.5789  144.5900  162.9254 C.3     1  UNL1        0.0003
     19 C         144.1338  143.7525  164.8309 C.3     1  UNL1        0.0000
     20 C         143.5215  144.8811  164.0554 C.3     1  UNL1        0.0000
     21 N         139.2289  137.6508  161.3227 N.am    1  UNL1       -0.2300
     22 C         139.7984  138.8629  160.6470 C.2     1  UNL1        0.2616
     23 O         139.6521  140.2139  161.2821 O.2     1  UNL1       -0.2686
     24 H         139.3250  136.7641  160.9058 H       1  UNL1        0.1731
     25 C         140.5142  138.7240  159.3361 C.ar    1  UNL1        0.0611
     26 C         141.9895  138.9828  159.2561 C.ar    1  UNL1        0.0081
     27 C         142.7054  138.8440  157.9452 C.ar    1  UNL1        0.0432
     28 C         141.9458  138.4463  156.7144 C.ar    1  UNL1        0.2040
     29 O         142.6616  138.3074  155.4035 O.3     1  UNL1       -0.5008
     30 C         140.4704  138.1875  156.7944 C.ar    1  UNL1        0.3232
     31 C         139.7546  138.3264  158.1053 C.ar    1  UNL1        0.0831
     32 H         143.5832  138.4691  155.3535 H       1  UNL1        0.2924
     33 N         139.7109  137.7898  155.5636 N.pl3   1  UNL1        0.0841
     34 O         138.5073  136.9020  155.6792 O.2     1  UNL1        0.0416
     35 O         140.1548  138.2798  154.2172 O.co2   1  UNL1       -0.5759
@<TRIPOS>UNITY_ATOM_ATTR
33 1
charge 1
35 1
charge -1
@<TRIPOS>BOND
     1    19    20    1
     2    20    18    1
     3    18    17    1
     4    17    16    1
     5    16    10    1
     6    10    11   ar
     7    11    12   ar
     8    12    13   ar
     9    13     5    1
    10     5     6   ar
    11     6     7   ar
    12     7     8   ar
    13     8     9   ar
    14     9     1    1
    15     1     2    2
    16     1     3   am
    17     3    21    1
    18    21    22   am
    19    22    23    2
    20    22    25    1
    21    25    26   ar
    22    26    27   ar
    23    27    28   ar
    24    28    29    1
    25    28    30   ar
    26    30    33    1
    27    33    34    2
    28    33    35    1
    29    30    31   ar
    30    13    14   ar
    31    14    15   ar
    32    15    10   ar
    33     9     5   ar
    34    31    25   ar
    35     3     4    1
    36    21    24    1
    37    29    32    1
@<TRIPOS>MOLECULE
*****
 35 37 0 0 0
SMALL
GASTEIGER

@<TRIPOS>ATOM
      1 C         138.4959  140.3670  162.6242 C.2     1  UNL1        0.2961
      2 O         137.4773  141.1487  163.3999 O.2     1  UNL1       -0.2653
      3 N         139.5169  139.5403  163.3479 N.am    1  UNL1       -0.2276
      4 H         140.1855  139.0273  162.8389 H       1  UNL1        0.1732
      5 C         139.6501  140.8006  160.2525 C.ar    1  UNL1        0.0423
      6 C         139.2052  140.7053  158.8232 C.ar    1  UNL1        0.0438
      7 C         137.7734  140.2581  158.8122 C.ar    1  UNL1        0.1798
      8 O         137.3335  140.0769  160.2348 O.2     1  UNL1       -0.4458
      9 C         138.4933  140.4122  161.1249 C.ar    1  UNL1        0.1998
     10 C         143.7375  142.0348  161.6738 C.ar    1  UNL1       -0.0222
     11 C         143.5485  140.7129  160.9905 C.ar    1  UNL1       -0.0043
     12 C         142.1860  140.3015  160.5168 C.ar    1  UNL1       -0.0002
     13 C         141.0126  141.2120  160.7263 C.ar    1  UNL1        0.0032
     14 C         141.2015  142.5339  161.4096 C.ar    1  UNL1       -0.0002
     15 C         142.5640  142.9453  161.8834 C.ar    1  UNL1       -0.0043
     16 C         145.0999  142.4462  162.1476 C.3     1  UNL1        0.0264
     17 C         145.7639  141.6962  163.2641 C.3     1  UNL1        0.0047
     18 C         144.9311  141.0118  164.3072 C.3     1  UNL1        0.0003
     19 C         143.9909  138.8270  165.3527 C.3     1  UNL1        0.0000
     20 C         144.9066  139.5138  164.3832 C.3     1  UNL1        0.0000
     21 N         139.5195  139.4951  164.8473 N.am    1  UNL1       -0.2300
     22 C         140.4872  140.3403  165.6214 C.2     1  UNL1        0.2616
     23 O         141.4523  141.2306  164.8963 O.2     1  UNL1       -0.2686
     24 H         138.8861  138.9107  165.3232 H       1  UNL1        0.1731
     25 C         140.4898  140.2951  167.1207 C.ar    1  UNL1        0.0611
     26 C         139.2054  140.0868  167.8670 C.ar    1  UNL1        0.0081
     27 C         139.2079  140.0416  169.3664 C.ar    1  UNL1        0.0432
     28 C         140.4948  140.2047  170.1194 C.ar    1  UNL1        0.2040
     29 O         140.4974  140.1595  171.6187 O.3     1  UNL1       -0.5008
     30 C         141.7793  140.4131  169.3731 C.ar    1  UNL1        0.3232
     31 C         141.7767  140.4582  167.8738 C.ar    1  UNL1        0.0831
     32 H         139.6951  140.0294  172.0849 H       1  UNL1        0.2924
     33 N         143.0663  140.5762  170.1262 N.pl3   1  UNL1        0.0841
     34 O         143.5572  139.4757  171.0194 O.2     1  UNL1        0.0416
     35 O         143.8623  141.8398  169.9861 O.co2   1  UNL1       -0.5759
@<TRIPOS>UNITY_ATOM_ATTR
33 1
charge 1
35 1
charge -1
@<TRIPOS>BOND
     1    19    20    1
     2    20    18    1
     3    18    17    1
     4    17    16    1
     5    16    10    1
     6    10    11   ar
     7    11    12   ar
     8    12    13   ar
     9    13     5    1
    10     5     6   ar
    11     6     7   ar
    12     7     8   ar
    13     8     9   ar
    14     9     1    1
    15     1     2    2
    16     1     3   am
    17     3    21    1
    18    21    22   am
    19    22    23    2
    20    22    25    1
    21    25    26   ar
    22    26    27   ar
    23    27    28   ar
    24    28    29    1
    25    28    30   ar
    26    30    33    1
    27    33    34    2
    28    33    35    1
    29    30    31   ar
    30    13    14   ar
    31    14    15   ar
    32    15    10   ar
    33     9     5   ar
    34    31    25   ar
    35     3     4    1
    36    21    24    1
    37    29    32    1
