@<TRIPOS>MOLECULE
*****
 33 35 0 0 0
SMALL
GASTEIGER

@<TRIPOS>ATOM
      1 C         139.9312  142.4959  165.9466 C.ar    1  UNL1        0.0047
      2 C         139.5246  141.0689  165.7263 C.ar    1  UNL1        0.0385
      3 C         139.4332  140.1269  166.8900 C.ar    1  UNL1        0.1561
      4 C         139.7483  140.6119  168.2741 C.ar    1  UNL1        0.1180
      5 N         139.6569  139.6699  169.4378 N.ar    1  UNL1       -0.2209
      6 C         139.9720  140.1549  170.8218 C.ar    1  UNL1        0.1986
      7 N         140.3785  141.5818  171.0421 N.ar    1  UNL1       -0.2283
      8 C         140.4699  142.5238  169.8784 C.ar    1  UNL1        0.0626
      9 C         140.8765  143.9508  170.0987 C.3     1  UNL1        0.0522
     10 C         140.1548  142.0388  168.4944 C.ar    1  UNL1        0.0343
     11 C         140.2463  142.9809  167.3306 C.ar    1  UNL1        0.0029
     12 C         140.2053  145.3218  162.4553 C.ar    1  UNL1        0.2533
     13 N         138.8752  144.7625  162.8648 N.ar    1  UNL1       -0.2082
     14 C         138.7838  143.8205  164.0285 C.ar    1  UNL1        0.1022
     15 C         140.0226  143.4379  164.7828 C.ar    1  UNL1        0.0217
     16 C         141.3528  143.9972  164.3733 C.ar    1  UNL1        0.0360
     17 C         141.4442  144.9392  163.2096 C.ar    1  UNL1        0.1930
     18 F         142.7744  145.4985  162.8001 F       1  UNL1       -0.1992
     19 C         140.2926  145.7277  159.8906 C.3     1  UNL1        0.2543
     20 O         140.2968  146.2638  161.2915 O.3     1  UNL1       -0.4546
     21 O         139.0267  138.7000  166.6697 O.3     1  UNL1       -0.4739
     22 C         139.0316  138.1240  165.2848 C.3     1  UNL1        0.2055
     23 C         140.2119  137.3315  164.8063 C.3     1  UNL1        0.0473
     24 C         141.5036  138.0259  164.4911 C.3     1  UNL1        0.0038
     25 C         142.4386  138.4098  165.5994 C.3     1  UNL1        0.0006
     26 C         143.8325  138.8634  165.2813 C.3     1  UNL1        0.0096
     27 C         144.0502  140.1122  164.4794 C.3     1  UNL1        0.0871
     28 C         144.5358  140.0191  163.0633 C.2     1  UNL1        0.2443
     29 O         145.3284  141.1443  162.4666 O.2     1  UNL1       -0.2730
     30 N         144.2288  138.8009  162.2437 N.am    1  UNL1       -0.1970
     31 O         144.7144  138.7078  160.8275 O.3     1  UNL1       -0.2952
     32 H         143.7087  138.0624  162.6353 H       1  UNL1        0.1822
     33 H         145.2061  139.5126  160.6007 H       1  UNL1        0.2414
@<TRIPOS>BOND
     1    19    20    1
     2    20    12    1
     3    12    13   ar
     4    13    14   ar
     5    14    15   ar
     6    15     1    1
     7     1     2   ar
     8     2     3   ar
     9     3    21    1
    10    21    22    1
    11    22    23    1
    12    23    24    1
    13    24    25    1
    14    25    26    1
    15    26    27    1
    16    27    28    1
    17    28    29    2
    18    28    30   am
    19    30    31    1
    20     3     4   ar
    21     4     5   ar
    22     5     6   ar
    23     6     7   ar
    24     7     8   ar
    25     8     9    1
    26     8    10   ar
    27    10    11   ar
    28    15    16   ar
    29    16    17   ar
    30    17    18    1
    31    17    12   ar
    32    11     1   ar
    33    10     4   ar
    34    30    32    1
    35    31    33    1
@<TRIPOS>MOLECULE
*****
 33 35 0 0 0
SMALL
GASTEIGER

@<TRIPOS>ATOM
      1 C         141.1131  142.5073  166.1879 C.ar    1  UNL1        0.0047
      2 C         141.7416  141.1612  165.9806 C.ar    1  UNL1        0.0385
      3 C         142.0317  140.2794  167.1589 C.ar    1  UNL1        0.1561
      4 C         141.6934  140.7439  168.5446 C.ar    1  UNL1        0.1180
      5 N         141.9835  139.8621  169.7228 N.ar    1  UNL1       -0.2209
      6 C         141.6452  140.3265  171.1084 C.ar    1  UNL1        0.1986
      7 N         141.0168  141.6727  171.3157 N.ar    1  UNL1       -0.2283
      8 C         140.7266  142.5544  170.1374 C.ar    1  UNL1        0.0626
      9 C         140.0982  143.9006  170.3447 C.3     1  UNL1        0.0522
     10 C         141.0649  142.0900  168.7519 C.ar    1  UNL1        0.0343
     11 C         140.7748  142.9717  167.5735 C.ar    1  UNL1        0.0029
     12 C         140.2429  145.1525  162.6530 C.ar    1  UNL1        0.2533
     13 N         141.6568  144.9589  163.1148 N.ar    1  UNL1       -0.2082
     14 C         141.9469  144.0772  164.2931 C.ar    1  UNL1        0.1022
     15 C         140.8230  143.3891  165.0096 C.ar    1  UNL1        0.0217
     16 C         139.4091  143.5826  164.5478 C.ar    1  UNL1        0.0360
     17 C         139.1190  144.4643  163.3695 C.ar    1  UNL1        0.1930
     18 F         137.7051  144.6579  162.9076 F       1  UNL1       -0.1992
     19 C         140.2122  145.5365  160.0836 C.3     1  UNL1        0.2543
     20 O         139.9528  146.0342  161.4746 O.3     1  UNL1       -0.4546
     21 O         142.6601  138.9333  166.9516 O.3     1  UNL1       -0.4739
     22 C         143.1497  138.5357  165.5907 C.3     1  UNL1        0.2055
     23 C         142.2920  137.6814  164.7050 C.3     1  UNL1        0.0473
     24 C         140.9956  138.2173  164.1735 C.3     1  UNL1        0.0038
     25 C         139.6939  137.6892  164.6995 C.3     1  UNL1        0.0006
     26 C         138.5634  138.6322  164.9874 C.3     1  UNL1        0.0096
     27 C         138.5922  139.4827  166.2226 C.3     1  UNL1        0.0871
     28 C         138.0152  138.9618  167.5054 C.2     1  UNL1        0.2443
     29 O         138.4438  139.5537  168.8155 O.2     1  UNL1       -0.2730
     30 N         137.0096  137.8492  167.4783 N.am    1  UNL1       -0.1970
     31 O         136.4326  137.3283  168.7613 O.3     1  UNL1       -0.2952
     32 H         136.7283  137.4607  166.6185 H       1  UNL1        0.1822
     33 H         136.8130  137.8161  169.5084 H       1  UNL1        0.2414
@<TRIPOS>BOND
     1    19    20    1
     2    20    12    1
     3    12    13   ar
     4    13    14   ar
     5    14    15   ar
     6    15     1    1
     7     1     2   ar
     8     2     3   ar
     9     3    21    1
    10    21    22    1
    11    22    23    1
    12    23    24    1
    13    24    25    1
    14    25    26    1
    15    26    27    1
    16    27    28    1
    17    28    29    2
    18    28    30   am
    19    30    31    1
    20     3     4   ar
    21     4     5   ar
    22     5     6   ar
    23     6     7   ar
    24     7     8   ar
    25     8     9    1
    26     8    10   ar
    27    10    11   ar
    28    15    16   ar
    29    16    17   ar
    30    17    18    1
    31    17    12   ar
    32    11     1   ar
    33    10     4   ar
    34    30    32    1
    35    31    33    1
@<TRIPOS>MOLECULE
*****
 33 35 0 0 0
SMALL
GASTEIGER

@<TRIPOS>ATOM
      1 C         141.0715  141.6644  166.2772 C.ar    1  UNL1        0.0047
      2 C         139.9378  140.6843  166.3404 C.ar    1  UNL1        0.0385
      3 C         139.5494  140.0704  167.6527 C.ar    1  UNL1        0.1561
      4 C         140.2947  140.4366  168.9019 C.ar    1  UNL1        0.1180
      5 N         139.9063  139.8227  170.2142 N.ar    1  UNL1       -0.2209
      6 C         140.6516  140.1890  171.4633 C.ar    1  UNL1        0.1986
      7 N         141.7854  141.1691  171.4001 N.ar    1  UNL1       -0.2283
      8 C         142.1738  141.7830  170.0878 C.ar    1  UNL1        0.0626
      9 C         143.3075  142.7631  170.0246 C.3     1  UNL1        0.0522
     10 C         141.4284  141.4168  168.8387 C.ar    1  UNL1        0.0343
     11 C         141.8168  142.0307  167.5263 C.ar    1  UNL1        0.0029
     12 C         142.2366  143.5060  162.3400 C.ar    1  UNL1        0.2533
     13 N         141.3211  142.3182  162.3707 N.ar    1  UNL1       -0.2082
     14 C         140.9328  141.7043  163.6831 C.ar    1  UNL1        0.1022
     15 C         141.4599  142.2783  164.9647 C.ar    1  UNL1        0.0217
     16 C         142.3754  143.4661  164.9340 C.ar    1  UNL1        0.0360
     17 C         142.7637  144.0800  163.6217 C.ar    1  UNL1        0.1930
     18 F         143.6792  145.2678  163.5909 F       1  UNL1       -0.1992
     19 C         141.5723  144.7007  160.1306 C.3     1  UNL1        0.2543
     20 O         142.6250  144.1199  161.0276 O.3     1  UNL1       -0.4546
     21 O         138.4156  139.0903  167.7159 O.3     1  UNL1       -0.4739
     22 C         137.8413  138.5252  166.4507 C.3     1  UNL1        0.2055
     23 C         138.6257  137.5277  165.6509 C.3     1  UNL1        0.0473
     24 C         138.9112  137.7868  164.2012 C.3     1  UNL1        0.0038
     25 C         140.3292  137.8643  163.7183 C.3     1  UNL1        0.0006
     26 C         141.4472  137.3815  164.5940 C.3     1  UNL1        0.0096
     27 C         142.4579  138.3546  165.1248 C.3     1  UNL1        0.0871
     28 C         143.4734  138.9596  164.2014 C.2     1  UNL1        0.2443
     29 O         143.6337  138.4251  162.8091 O.2     1  UNL1       -0.2730
     30 N         144.3287  140.0992  164.6704 N.am    1  UNL1       -0.1970
     31 O         145.3442  140.7042  163.7469 O.3     1  UNL1       -0.2952
     32 H         144.2235  140.4500  165.5842 H       1  UNL1        0.1822
     33 H         145.3185  140.2453  162.8927 H       1  UNL1        0.2414
@<TRIPOS>BOND
     1    19    20    1
     2    20    12    1
     3    12    13   ar
     4    13    14   ar
     5    14    15   ar
     6    15     1    1
     7     1     2   ar
     8     2     3   ar
     9     3    21    1
    10    21    22    1
    11    22    23    1
    12    23    24    1
    13    24    25    1
    14    25    26    1
    15    26    27    1
    16    27    28    1
    17    28    29    2
    18    28    30   am
    19    30    31    1
    20     3     4   ar
    21     4     5   ar
    22     5     6   ar
    23     6     7   ar
    24     7     8   ar
    25     8     9    1
    26     8    10   ar
    27    10    11   ar
    28    15    16   ar
    29    16    17   ar
    30    17    18    1
    31    17    12   ar
    32    11     1   ar
    33    10     4   ar
    34    30    32    1
    35    31    33    1
@<TRIPOS>MOLECULE
*****
 33 35 0 0 0
SMALL
GASTEIGER

@<TRIPOS>ATOM
      1 C         141.5694  141.9928  166.0726 C.ar    1  UNL1        0.0047
      2 C         141.2269  143.3214  165.4663 C.ar    1  UNL1        0.0385
      3 C         141.9998  143.8284  164.2851 C.ar    1  UNL1        0.1561
      4 C         143.1154  143.0069  163.7100 C.ar    1  UNL1        0.1180
      5 N         143.8883  143.5139  162.5287 N.ar    1  UNL1       -0.2209
      6 C         145.0038  142.6923  161.9537 C.ar    1  UNL1        0.1986
      7 N         145.3463  141.3637  162.5600 N.ar    1  UNL1       -0.2283
      8 C         144.5734  140.8567  163.7412 C.ar    1  UNL1        0.0626
      9 C         144.9159  139.5281  164.3475 C.3     1  UNL1        0.0522
     10 C         143.4579  141.6783  164.3162 C.ar    1  UNL1        0.0343
     11 C         142.6849  141.1713  165.4976 C.ar    1  UNL1        0.0029
     12 C         139.2504  140.4718  169.6164 C.ar    1  UNL1        0.2533
     13 N         139.4211  139.6054  168.4039 N.ar    1  UNL1       -0.2082
     14 C         140.1941  140.1124  167.2227 C.ar    1  UNL1        0.1022
     15 C         140.7964  141.4858  167.2539 C.ar    1  UNL1        0.0217
     16 C         140.6256  142.3523  168.4664 C.ar    1  UNL1        0.0360
     17 C         139.8526  141.8452  169.6476 C.ar    1  UNL1        0.1930
     18 F         139.6818  142.7117  170.8601 F       1  UNL1       -0.1992
     19 C         137.1697  139.2595  170.5916 C.3     1  UNL1        0.2543
     20 O         138.4774  139.9648  170.7977 O.3     1  UNL1       -0.4546
     21 O         141.6573  145.1570  163.6788 O.3     1  UNL1       -0.4739
     22 C         140.5807  145.2516  162.6387 C.3     1  UNL1        0.2055
     23 C         139.1486  145.0168  163.0181 C.3     1  UNL1        0.0473
     24 C         138.5267  143.6690  162.8016 C.3     1  UNL1        0.0038
     25 C         137.6441  143.0720  163.8573 C.3     1  UNL1        0.0006
     26 C         137.9988  141.7507  164.4723 C.3     1  UNL1        0.0096
     27 C         138.9595  140.8330  163.7758 C.3     1  UNL1        0.0871
     28 C         138.4835  139.9626  162.6508 C.2     1  UNL1        0.2443
     29 O         139.2846  138.7628  162.2401 O.2     1  UNL1       -0.2730
     30 N         137.2063  140.2920  161.9364 N.am    1  UNL1       -0.1970
     31 O         136.7303  139.4215  160.8113 O.3     1  UNL1       -0.2952
     32 H         136.6805  141.0794  162.2059 H       1  UNL1        0.1822
     33 H         137.3593  138.6956  160.6757 H       1  UNL1        0.2414
@<TRIPOS>BOND
     1    19    20    1
     2    20    12    1
     3    12    13   ar
     4    13    14   ar
     5    14    15   ar
     6    15     1    1
     7     1     2   ar
     8     2     3   ar
     9     3    21    1
    10    21    22    1
    11    22    23    1
    12    23    24    1
    13    24    25    1
    14    25    26    1
    15    26    27    1
    16    27    28    1
    17    28    29    2
    18    28    30   am
    19    30    31    1
    20     3     4   ar
    21     4     5   ar
    22     5     6   ar
    23     6     7   ar
    24     7     8   ar
    25     8     9    1
    26     8    10   ar
    27    10    11   ar
    28    15    16   ar
    29    16    17   ar
    30    17    18    1
    31    17    12   ar
    32    11     1   ar
    33    10     4   ar
    34    30    32    1
    35    31    33    1
@<TRIPOS>MOLECULE
*****
 33 35 0 0 0
SMALL
GASTEIGER

@<TRIPOS>ATOM
      1 C         140.4895  142.7432  166.3197 C.ar    1  UNL1        0.0047
      2 C         140.9511  141.3207  166.2045 C.ar    1  UNL1        0.0385
      3 C         141.2145  140.5151  167.4421 C.ar    1  UNL1        0.1561
      4 C         141.0163  141.1321  168.7950 C.ar    1  UNL1        0.1180
      5 N         141.2797  140.3265  170.0325 N.ar    1  UNL1       -0.2209
      6 C         141.0815  140.9435  171.3853 C.ar    1  UNL1        0.1986
      7 N         140.6199  142.3660  171.5005 N.ar    1  UNL1       -0.2283
      8 C         140.3565  143.1716  170.2629 C.ar    1  UNL1        0.0626
      9 C         139.8949  144.5942  170.3781 C.3     1  UNL1        0.0522
     10 C         140.5547  142.5546  168.9102 C.ar    1  UNL1        0.0343
     11 C         140.2913  143.3602  167.6725 C.ar    1  UNL1        0.0029
     12 C         139.6994  145.1599  162.6069 C.ar    1  UNL1        0.2533
     13 N         141.1070  144.9541  163.0824 N.ar    1  UNL1       -0.2082
     14 C         141.3704  144.1486  164.3200 C.ar    1  UNL1        0.1022
     15 C         140.2261  143.5488  165.0821 C.ar    1  UNL1        0.0217
     16 C         138.8184  143.7546  164.6066 C.ar    1  UNL1        0.0360
     17 C         138.5551  144.5601  163.3690 C.ar    1  UNL1        0.1930
     18 F         137.1474  144.7659  162.8935 F       1  UNL1       -0.1992
     19 C         140.1819  145.6617  160.1038 C.3     1  UNL1        0.2543
     20 O         139.4360  145.9655  161.3692 O.3     1  UNL1       -0.4546
     21 O         141.6761  139.0926  167.3269 O.3     1  UNL1       -0.4739
     22 C         143.1353  138.7889  167.1581 C.3     1  UNL1        0.2055
     23 C         143.6497  138.2884  165.8409 C.3     1  UNL1        0.0473
     24 C         143.5613  139.1581  164.6219 C.3     1  UNL1        0.0038
     25 C         144.1376  140.5427  164.6449 C.3     1  UNL1        0.0006
     26 C         145.4833  140.8052  164.0367 C.3     1  UNL1        0.0096
     27 C         145.6877  142.0021  163.1559 C.3     1  UNL1        0.0871
     28 C         144.6615  142.3553  162.1204 C.2     1  UNL1        0.2443
     29 O         144.1725  141.3101  161.1621 O.2     1  UNL1       -0.2730
     30 N         144.1244  143.7537  162.0433 N.am    1  UNL1       -0.1970
     31 O         143.0982  144.1069  161.0078 O.3     1  UNL1       -0.2952
     32 H         144.4454  144.4397  162.6723 H       1  UNL1        0.1822
     33 H         142.8939  143.3228  160.4744 H       1  UNL1        0.2414
@<TRIPOS>BOND
     1    19    20    1
     2    20    12    1
     3    12    13   ar
     4    13    14   ar
     5    14    15   ar
     6    15     1    1
     7     1     2   ar
     8     2     3   ar
     9     3    21    1
    10    21    22    1
    11    22    23    1
    12    23    24    1
    13    24    25    1
    14    25    26    1
    15    26    27    1
    16    27    28    1
    17    28    29    2
    18    28    30   am
    19    30    31    1
    20     3     4   ar
    21     4     5   ar
    22     5     6   ar
    23     6     7   ar
    24     7     8   ar
    25     8     9    1
    26     8    10   ar
    27    10    11   ar
    28    15    16   ar
    29    16    17   ar
    30    17    18    1
    31    17    12   ar
    32    11     1   ar
    33    10     4   ar
    34    30    32    1
    35    31    33    1
@<TRIPOS>MOLECULE
*****
 33 35 0 0 0
SMALL
GASTEIGER

@<TRIPOS>ATOM
      1 C         140.8483  139.4156  165.5471 C.ar    1  UNL1        0.0047
      2 C         139.6833  138.7757  164.8520 C.ar    1  UNL1        0.0385
      3 C         139.8587  138.1829  163.4854 C.ar    1  UNL1        0.1561
      4 C         141.1992  138.2299  162.8138 C.ar    1  UNL1        0.1180
      5 N         141.3746  137.6370  161.4472 N.ar    1  UNL1       -0.2209
      6 C         142.7150  137.6841  160.7757 C.ar    1  UNL1        0.1986
      7 N         143.8801  138.3240  161.4708 N.ar    1  UNL1       -0.2283
      8 C         143.7046  138.9168  162.8375 C.ar    1  UNL1        0.0626
      9 C         144.8697  139.5567  163.5326 C.3     1  UNL1        0.0522
     10 C         142.3642  138.8698  163.5089 C.ar    1  UNL1        0.0343
     11 C         142.1887  139.4627  164.8756 C.ar    1  UNL1        0.0029
     12 C         140.3220  141.1943  169.6471 C.ar    1  UNL1        0.2533
     13 N         141.5574  141.4959  168.8516 N.ar    1  UNL1       -0.2082
     14 C         141.7328  140.9031  167.4850 C.ar    1  UNL1        0.1022
     15 C         140.6728  140.0085  166.9138 C.ar    1  UNL1        0.0217
     16 C         139.4375  139.7068  167.7093 C.ar    1  UNL1        0.0360
     17 C         139.2620  140.2997  169.0759 C.ar    1  UNL1        0.1930
     18 F         138.0266  139.9981  169.8714 F       1  UNL1       -0.1992
     19 C         141.3176  141.8812  171.9464 C.3     1  UNL1        0.2543
     20 O         140.1466  141.7872  171.0138 O.3     1  UNL1       -0.4546
     21 O         138.6936  137.5430  162.7903 O.3     1  UNL1       -0.4739
     22 C         137.8964  138.3245  161.7885 C.3     1  UNL1        0.2055
     23 C         138.0968  139.8057  161.6616 C.3     1  UNL1        0.0473
     24 C         137.4285  140.7384  162.6278 C.3     1  UNL1        0.0038
     25 C         138.2394  141.7644  163.3625 C.3     1  UNL1        0.0006
     26 C         137.5623  142.7395  164.2793 C.3     1  UNL1        0.0096
     27 C         138.2723  143.9928  164.6978 C.3     1  UNL1        0.0871
     28 C         139.0314  144.7984  163.6855 C.2     1  UNL1        0.2443
     29 O         138.3991  145.1343  162.3673 O.2     1  UNL1       -0.2730
     30 N         140.4227  145.2683  163.9913 N.am    1  UNL1       -0.1970
     31 O         141.1817  146.0740  162.9789 O.3     1  UNL1       -0.2952
     32 H         140.8377  145.0479  164.8564 H       1  UNL1        0.1822
     33 H         140.6330  146.2004  162.1891 H       1  UNL1        0.2414
@<TRIPOS>BOND
     1    19    20    1
     2    20    12    1
     3    12    13   ar
     4    13    14   ar
     5    14    15   ar
     6    15     1    1
     7     1     2   ar
     8     2     3   ar
     9     3    21    1
    10    21    22    1
    11    22    23    1
    12    23    24    1
    13    24    25    1
    14    25    26    1
    15    26    27    1
    16    27    28    1
    17    28    29    2
    18    28    30   am
    19    30    31    1
    20     3     4   ar
    21     4     5   ar
    22     5     6   ar
    23     6     7   ar
    24     7     8   ar
    25     8     9    1
    26     8    10   ar
    27    10    11   ar
    28    15    16   ar
    29    16    17   ar
    30    17    18    1
    31    17    12   ar
    32    11     1   ar
    33    10     4   ar
    34    30    32    1
    35    31    33    1
@<TRIPOS>MOLECULE
*****
 33 35 0 0 0
SMALL
GASTEIGER

@<TRIPOS>ATOM
      1 C         141.3343  142.6337  165.1787 C.ar    1  UNL1        0.0047
      2 C         142.7041  142.8747  164.6169 C.ar    1  UNL1        0.0385
      3 C         142.8675  143.6621  163.3507 C.ar    1  UNL1        0.1561
      4 C         141.6611  144.2084  162.6462 C.ar    1  UNL1        0.1180
      5 N         141.8245  144.9958  161.3800 N.ar    1  UNL1       -0.2209
      6 C         140.6181  145.5421  160.6757 C.ar    1  UNL1        0.1986
      7 N         139.2483  145.3010  161.2375 N.ar    1  UNL1       -0.2283
      8 C         139.0849  144.5137  162.5037 C.ar    1  UNL1        0.0626
      9 C         137.7152  144.2726  163.0655 C.3     1  UNL1        0.0522
     10 C         140.2913  143.9674  163.2081 C.ar    1  UNL1        0.0343
     11 C         140.1280  143.1800  164.4743 C.ar    1  UNL1        0.0029
     12 C         140.8444  140.2716  168.9774 C.ar    1  UNL1        0.2533
     13 N         142.0916  141.0727  168.7480 N.ar    1  UNL1       -0.2082
     14 C         142.2549  141.8600  167.4818 C.ar    1  UNL1        0.1022
     15 C         141.1710  141.8463  166.4450 C.ar    1  UNL1        0.0217
     16 C         139.9238  141.0452  166.6744 C.ar    1  UNL1        0.0360
     17 C         139.7605  140.2578  167.9406 C.ar    1  UNL1        0.1930
     18 F         138.5132  139.4566  168.1701 F       1  UNL1       -0.1992
     19 C         140.3924  140.1914  171.5347 C.3     1  UNL1        0.2543
     20 O         140.6810  139.4842  170.2437 O.3     1  UNL1       -0.4546
     21 O         144.2372  143.9031  162.7888 O.3     1  UNL1       -0.4739
     22 C         145.0113  142.7682  162.1867 C.3     1  UNL1        0.2055
     23 C         145.4737  141.6334  163.0518 C.3     1  UNL1        0.0473
     24 C         144.7887  140.3013  162.9711 C.3     1  UNL1        0.0038
     25 C         144.8517  139.3539  164.1323 C.3     1  UNL1        0.0006
     26 C         143.8418  139.4532  165.2369 C.3     1  UNL1        0.0096
     27 C         142.6015  138.6107  165.1972 C.3     1  UNL1        0.0871
     28 C         141.7620  138.5700  163.9548 C.2     1  UNL1        0.2443
     29 O         141.0453  139.8042  163.4931 O.2     1  UNL1       -0.2730
     30 N         141.6391  137.2951  163.1740 N.am    1  UNL1       -0.1970
     31 O         140.7995  137.2545  161.9316 O.3     1  UNL1       -0.2952
     32 H         142.1094  136.4850  163.4770 H       1  UNL1        0.1822
     33 H         140.4096  138.1289  161.7761 H       1  UNL1        0.2414
@<TRIPOS>BOND
     1    19    20    1
     2    20    12    1
     3    12    13   ar
     4    13    14   ar
     5    14    15   ar
     6    15     1    1
     7     1     2   ar
     8     2     3   ar
     9     3    21    1
    10    21    22    1
    11    22    23    1
    12    23    24    1
    13    24    25    1
    14    25    26    1
    15    26    27    1
    16    27    28    1
    17    28    29    2
    18    28    30   am
    19    30    31    1
    20     3     4   ar
    21     4     5   ar
    22     5     6   ar
    23     6     7   ar
    24     7     8   ar
    25     8     9    1
    26     8    10   ar
    27    10    11   ar
    28    15    16   ar
    29    16    17   ar
    30    17    18    1
    31    17    12   ar
    32    11     1   ar
    33    10     4   ar
    34    30    32    1
    35    31    33    1
@<TRIPOS>MOLECULE
*****
 33 35 0 0 0
SMALL
GASTEIGER

@<TRIPOS>ATOM
      1 C         139.3694  141.3467  165.1896 C.ar    1  UNL1        0.0047
      2 C         138.7701  140.1654  164.4857 C.ar    1  UNL1        0.0385
      3 C         138.4781  140.2367  163.0162 C.ar    1  UNL1        0.1561
      4 C         138.7854  141.4895  162.2504 C.ar    1  UNL1        0.1180
      5 N         138.4934  141.5608  160.7809 N.ar    1  UNL1       -0.2209
      6 C         138.8006  142.8135  160.0152 C.ar    1  UNL1        0.1986
      7 N         139.3999  143.9948  160.7190 N.ar    1  UNL1       -0.2283
      8 C         139.6919  143.9235  162.1886 C.ar    1  UNL1        0.0626
      9 C         140.2911  145.1048  162.8924 C.3     1  UNL1        0.0522
     10 C         139.3846  142.6708  162.9543 C.ar    1  UNL1        0.0343
     11 C         139.6766  142.5994  164.4239 C.ar    1  UNL1        0.0029
     12 C         140.2453  141.1323  169.5983 C.ar    1  UNL1        0.2533
     13 N         139.6328  139.9561  168.8973 N.ar    1  UNL1       -0.2082
     14 C         139.3409  140.0276  167.4277 C.ar    1  UNL1        0.1022
     15 C         139.6613  141.2752  166.6592 C.ar    1  UNL1        0.0217
     16 C         140.2738  142.4514  167.3602 C.ar    1  UNL1        0.0360
     17 C         140.5657  142.3800  168.8297 C.ar    1  UNL1        0.1930
     18 F         141.1782  143.5562  169.5308 F       1  UNL1       -0.1992
     19 C         141.9532  140.9312  171.5458 C.3     1  UNL1        0.2543
     20 O         140.5372  141.0609  171.0679 O.3     1  UNL1       -0.4546
     21 O         137.8789  139.0554  162.3123 O.3     1  UNL1       -0.4739
     22 C         138.7136  137.8377  162.0470 C.3     1  UNL1        0.2055
     23 C         140.1971  137.9697  161.8683 C.3     1  UNL1        0.0473
     24 C         141.1285  137.4566  162.9262 C.3     1  UNL1        0.0038
     25 C         142.3669  138.2285  163.2737 C.3     1  UNL1        0.0006
     26 C         142.2699  139.6837  163.6241 C.3     1  UNL1        0.0096
     27 C         143.0910  140.2406  164.7491 C.3     1  UNL1        0.0871
     28 C         144.1938  141.2158  164.4615 C.2     1  UNL1        0.2443
     29 O         144.1671  142.5821  165.0800 O.2     1  UNL1       -0.2730
     30 N         145.3234  140.8247  163.5553 N.am    1  UNL1       -0.1970
     31 O         146.4262  141.8000  163.2677 O.3     1  UNL1       -0.2952
     32 H         145.3410  139.9280  163.1493 H       1  UNL1        0.1822
     33 H         146.2569  142.6288  163.7424 H       1  UNL1        0.2414
@<TRIPOS>BOND
     1    19    20    1
     2    20    12    1
     3    12    13   ar
     4    13    14   ar
     5    14    15   ar
     6    15     1    1
     7     1     2   ar
     8     2     3   ar
     9     3    21    1
    10    21    22    1
    11    22    23    1
    12    23    24    1
    13    24    25    1
    14    25    26    1
    15    26    27    1
    16    27    28    1
    17    28    29    2
    18    28    30   am
    19    30    31    1
    20     3     4   ar
    21     4     5   ar
    22     5     6   ar
    23     6     7   ar
    24     7     8   ar
    25     8     9    1
    26     8    10   ar
    27    10    11   ar
    28    15    16   ar
    29    16    17   ar
    30    17    18    1
    31    17    12   ar
    32    11     1   ar
    33    10     4   ar
    34    30    32    1
    35    31    33    1
@<TRIPOS>MOLECULE
*****
 33 35 0 0 0
SMALL
GASTEIGER

@<TRIPOS>ATOM
      1 C         139.0412  141.4702  164.0992 C.ar    1  UNL1        0.0047
      2 C         138.8844  142.9248  163.7682 C.ar    1  UNL1        0.0385
      3 C         138.6563  143.3505  162.3481 C.ar    1  UNL1        0.1561
      4 C         138.5850  142.3215  161.2589 C.ar    1  UNL1        0.1180
      5 N         138.3569  142.7472  159.8388 N.ar    1  UNL1       -0.2209
      6 C         138.2857  141.7183  158.7497 C.ar    1  UNL1        0.1986
      7 N         138.4425  140.2637  159.0807 N.ar    1  UNL1       -0.2283
      8 C         138.6706  139.8380  160.5008 C.ar    1  UNL1        0.0626
      9 C         138.8275  138.3834  160.8317 C.3     1  UNL1        0.0522
     10 C         138.7419  140.8669  161.5899 C.ar    1  UNL1        0.0343
     11 C         138.9700  140.4413  163.0101 C.ar    1  UNL1        0.0029
     12 C         139.7254  140.1931  168.3596 C.ar    1  UNL1        0.2533
     13 N         138.9118  139.3317  167.4399 N.ar    1  UNL1       -0.2082
     14 C         138.6837  139.7574  166.0198 C.ar    1  UNL1        0.1022
     15 C         139.2693  141.0445  165.5194 C.ar    1  UNL1        0.0217
     16 C         140.0829  141.9059  166.4391 C.ar    1  UNL1        0.0360
     17 C         140.3110  141.4802  167.8592 C.ar    1  UNL1        0.1930
     18 F         141.1247  142.3417  168.7789 F       1  UNL1       -0.1992
     19 C         141.3439  139.4759  170.2612 C.3     1  UNL1        0.2543
     20 O         139.9535  139.7675  169.7798 O.3     1  UNL1       -0.4546
     21 O         138.4994  144.8051  162.0171 O.3     1  UNL1       -0.4739
     22 C         139.6767  145.7288  162.1200 C.3     1  UNL1        0.2055
     23 C         141.0700  145.1821  162.0206 C.3     1  UNL1        0.0473
     24 C         141.8973  145.0074  163.2596 C.3     1  UNL1        0.0038
     25 C         142.6996  143.7551  163.4553 C.3     1  UNL1        0.0006
     26 C         143.3789  143.4970  164.7675 C.3     1  UNL1        0.0096
     27 C         144.7592  142.9106  164.7948 C.3     1  UNL1        0.0871
     28 C         145.0866  141.7229  163.9392 C.2     1  UNL1        0.2443
     29 O         145.7865  141.9144  162.6263 O.2     1  UNL1       -0.2730
     30 N         144.7142  140.3437  164.3964 N.am    1  UNL1       -0.1970
     31 O         145.0417  139.1559  163.5407 O.3     1  UNL1       -0.2952
     32 H         144.2549  140.2180  165.2580 H       1  UNL1        0.1822
     33 H         145.4897  139.4529  162.7332 H       1  UNL1        0.2414
@<TRIPOS>BOND
     1    19    20    1
     2    20    12    1
     3    12    13   ar
     4    13    14   ar
     5    14    15   ar
     6    15     1    1
     7     1     2   ar
     8     2     3   ar
     9     3    21    1
    10    21    22    1
    11    22    23    1
    12    23    24    1
    13    24    25    1
    14    25    26    1
    15    26    27    1
    16    27    28    1
    17    28    29    2
    18    28    30   am
    19    30    31    1
    20     3     4   ar
    21     4     5   ar
    22     5     6   ar
    23     6     7   ar
    24     7     8   ar
    25     8     9    1
    26     8    10   ar
    27    10    11   ar
    28    15    16   ar
    29    16    17   ar
    30    17    18    1
    31    17    12   ar
    32    11     1   ar
    33    10     4   ar
    34    30    32    1
    35    31    33    1
