@<TRIPOS>MOLECULE
*****
 34 38 0 0 0
SMALL
GASTEIGER

@<TRIPOS>ATOM
      1 N         137.8152  142.8045  163.2089 N.3     1  UNL1       -0.2723
      2 C         137.9850  142.5798  161.7356 C.3     1  UNL1        0.0735
      3 C         138.0839  141.1837  161.1963 C.3     1  UNL1        0.0331
      4 C         138.0131  140.0121  162.1304 C.3     1  UNL1        0.0570
      5 C         137.8433  140.2367  163.6037 C.3     1  UNL1        0.0331
      6 C         137.7444  141.6330  164.1430 C.3     1  UNL1        0.0735
      7 N         138.1120  138.6159  161.5911 N.3     1  UNL1       -0.2934
      8 H         137.5900  138.6010  160.7149 H       1  UNL1        0.1236
      9 C         139.4567  138.0162  161.3043 C.3     1  UNL1        0.1151
     10 C         140.5791  138.1883  162.2843 C.ar    1  UNL1        0.0756
     11 C         141.7823  139.0027  161.9112 C.ar    1  UNL1        0.0254
     12 C         142.9048  139.1748  162.8913 C.ar    1  UNL1        0.0653
     13 C         142.8240  138.5325  164.2444 C.ar    1  UNL1        0.1646
     14 C         141.6209  137.7182  164.6175 C.ar    1  UNL1        0.1358
     15 N         140.4984  137.5460  163.6375 N.ar    1  UNL1       -0.2436
     16 O         144.0761  138.8757  164.9958 O.3     1  UNL1       -0.4611
     17 C         144.9306  139.7301  164.1071 C.3     1  UNL1        0.2681
     18 S         144.2066  139.9149  162.8064 S.3     1  UNL1       -0.0640
     19 C         137.7163  144.2007  163.7482 C.3     1  UNL1        0.0768
     20 C         138.8234  144.7588  164.5925 C.3     1  UNL1        0.0444
     21 C         141.0478  142.0560  167.4204 C.ar    1  UNL1        0.1388
     22 C         142.4715  141.6800  167.1345 C.ar    1  UNL1        0.0384
     23 C         143.1537  142.2049  165.9061 C.ar    1  UNL1        0.0222
     24 C         142.4123  143.1058  164.9635 C.ar    1  UNL1        0.0812
     25 N         143.0945  143.6307  163.7350 N.ar    1  UNL1       -0.2432
     26 C         142.3531  144.5316  162.7924 C.ar    1  UNL1        0.1087
     27 C         140.9293  144.9077  163.0782 C.ar    1  UNL1        0.0836
     28 C         140.2471  144.3828  164.3067 C.ar    1  UNL1       -0.0081
     29 C         140.9886  143.4818  165.2493 C.ar    1  UNL1        0.0174
     30 C         140.3064  142.9569  166.4777 C.ar    1  UNL1        0.0381
     31 C         139.6055  140.2393  168.5905 C.3     1  UNL1        0.2525
     32 O         140.3656  141.5311  168.6488 O.3     1  UNL1       -0.4714
     33 C         140.1879  145.8086  162.1356 C.1     1  UNL1        0.1017
     34 N         139.4464  146.7096  161.1930 N.1     1  UNL1       -0.1908
@<TRIPOS>BOND
     1    31    32    1
     2    32    21    1
     3    21    22   ar
     4    22    23   ar
     5    23    24   ar
     6    24    25   ar
     7    25    26   ar
     8    26    27   ar
     9    27    33    1
    10    33    34    3
    11    27    28   ar
    12    28    20    1
    13    20    19    1
    14    19     1    1
    15     1     2    1
    16     2     3    1
    17     3     4    1
    18     4     7    1
    19     7     9    1
    20     9    10    1
    21    10    11   ar
    22    11    12   ar
    23    12    13   ar
    24    13    14   ar
    25    14    15   ar
    26    13    16    1
    27    16    17    1
    28    17    18    1
    29     4     5    1
    30     5     6    1
    31    28    29   ar
    32    29    30   ar
    33    30    21   ar
    34    29    24   ar
    35     6     1    1
    36    15    10   ar
    37    18    12    1
    38     7     8    1
@<TRIPOS>MOLECULE
*****
 34 38 0 0 0
SMALL
GASTEIGER

@<TRIPOS>ATOM
      1 N         143.0924  141.3954  165.7253 N.3     1  UNL1       -0.2723
      2 C         143.3821  139.9329  165.8907 C.3     1  UNL1        0.0735
      3 C         143.7948  139.1114  164.7055 C.3     1  UNL1        0.0331
      4 C         143.9179  139.7524  163.3548 C.3     1  UNL1        0.0570
      5 C         143.6282  141.2148  163.1895 C.3     1  UNL1        0.0331
      6 C         143.2155  142.0363  164.3748 C.3     1  UNL1        0.0735
      7 N         144.3306  138.9309  162.1696 N.3     1  UNL1       -0.2934
      8 H         145.2109  138.4788  162.4169 H       1  UNL1        0.1236
      9 C         143.4229  137.8558  161.6495 C.3     1  UNL1        0.1151
     10 C         141.9351  138.0356  161.7114 C.ar    1  UNL1        0.0756
     11 C         141.2440  138.9168  160.7134 C.ar    1  UNL1        0.0254
     12 C         139.7560  139.0966  160.7753 C.ar    1  UNL1        0.0653
     13 C         138.9592  138.3952  161.8351 C.ar    1  UNL1        0.1646
     14 C         139.6503  137.5140  162.8330 C.ar    1  UNL1        0.1358
     15 N         141.1382  137.3342  162.7712 N.ar    1  UNL1       -0.2436
     16 O         137.5166  138.7611  161.6486 O.3     1  UNL1       -0.4611
     17 C         137.4217  139.6885  160.4735 C.3     1  UNL1        0.2681
     18 S         138.8058  139.8959  159.9338 S.3     1  UNL1       -0.0640
     19 C         142.6797  142.2169  166.9105 C.3     1  UNL1        0.0768
     20 C         141.2317  142.5407  167.1311 C.3     1  UNL1        0.0444
     21 C         138.8957  143.7842  163.4916 C.ar    1  UNL1        0.1388
     22 C         137.8327  142.8820  162.9383 C.ar    1  UNL1        0.0384
     23 C         137.5484  141.5653  163.5983 C.ar    1  UNL1        0.0222
     24 C         138.3271  141.1508  164.8115 C.ar    1  UNL1        0.0812
     25 N         138.0427  139.8341  165.4714 N.ar    1  UNL1       -0.2432
     26 C         138.8214  139.4196  166.6846 C.ar    1  UNL1        0.1087
     27 C         139.8845  140.3218  167.2379 C.ar    1  UNL1        0.0836
     28 C         140.1688  141.6385  166.5779 C.ar    1  UNL1       -0.0081
     29 C         139.3900  142.0530  165.3647 C.ar    1  UNL1        0.0174
     30 C         139.6743  143.3697  164.7047 C.ar    1  UNL1        0.0381
     31 C         140.5921  145.4860  162.5038 C.3     1  UNL1        0.2525
     32 O         139.1800  145.1008  162.8316 O.3     1  UNL1       -0.4714
     33 C         140.6631  139.9073  168.4510 C.1     1  UNL1        0.1017
     34 N         141.4418  139.4928  169.6642 N.1     1  UNL1       -0.1908
@<TRIPOS>BOND
     1    31    32    1
     2    32    21    1
     3    21    22   ar
     4    22    23   ar
     5    23    24   ar
     6    24    25   ar
     7    25    26   ar
     8    26    27   ar
     9    27    33    1
    10    33    34    3
    11    27    28   ar
    12    28    20    1
    13    20    19    1
    14    19     1    1
    15     1     2    1
    16     2     3    1
    17     3     4    1
    18     4     7    1
    19     7     9    1
    20     9    10    1
    21    10    11   ar
    22    11    12   ar
    23    12    13   ar
    24    13    14   ar
    25    14    15   ar
    26    13    16    1
    27    16    17    1
    28    17    18    1
    29     4     5    1
    30     5     6    1
    31    28    29   ar
    32    29    30   ar
    33    30    21   ar
    34    29    24   ar
    35     6     1    1
    36    15    10   ar
    37    18    12    1
    38     7     8    1
@<TRIPOS>MOLECULE
*****
 34 38 0 0 0
SMALL
GASTEIGER

@<TRIPOS>ATOM
      1 N         138.2043  139.9260  162.1938 N.3     1  UNL1       -0.2723
      2 C         138.9379  140.6608  161.1113 C.3     1  UNL1        0.0735
      3 C         138.9973  142.1595  161.1296 C.3     1  UNL1        0.0331
      4 C         138.3230  142.9234  162.2304 C.3     1  UNL1        0.0570
      5 C         137.5893  142.1886  163.3129 C.3     1  UNL1        0.0331
      6 C         137.5300  140.6898  163.2946 C.3     1  UNL1        0.0735
      7 N         138.3823  144.4221  162.2487 N.3     1  UNL1       -0.2934
      8 H         137.4829  144.7481  162.6024 H       1  UNL1        0.1236
      9 C         139.4413  145.1210  163.0487 C.3     1  UNL1        0.1151
     10 C         140.6529  144.3667  163.5101 C.ar    1  UNL1        0.0756
     11 C         141.8511  144.2523  162.6150 C.ar    1  UNL1        0.0254
     12 C         143.0628  143.4980  163.0765 C.ar    1  UNL1        0.0653
     13 C         143.0762  142.8581  164.4330 C.ar    1  UNL1        0.1646
     14 C         141.8781  142.9725  165.3282 C.ar    1  UNL1        0.1358
     15 N         140.6664  143.7268  164.8668 N.ar    1  UNL1       -0.2436
     16 O         144.4036  142.1833  164.6140 O.3     1  UNL1       -0.4611
     17 C         145.2105  142.4063  163.3694 C.3     1  UNL1        0.2681
     18 S         144.3818  143.2188  162.4191 S.3     1  UNL1       -0.0640
     19 C         138.1449  138.4273  162.1755 C.3     1  UNL1        0.0768
     20 C         138.8843  137.6346  163.2124 C.3     1  UNL1        0.0444
     21 C         142.7691  137.8898  160.9556 C.ar    1  UNL1        0.1388
     22 C         143.9841  138.4693  161.6172 C.ar    1  UNL1        0.0384
     23 C         143.9042  138.9638  163.0311 C.ar    1  UNL1        0.0222
     24 C         142.6093  138.8788  163.7834 C.ar    1  UNL1        0.0812
     25 N         142.5294  139.3733  165.1973 N.ar    1  UNL1       -0.2432
     26 C         141.2345  139.2883  165.9495 C.ar    1  UNL1        0.1087
     27 C         140.0194  138.7087  165.2879 C.ar    1  UNL1        0.0836
     28 C         140.0993  138.2142  163.8740 C.ar    1  UNL1       -0.0081
     29 C         141.3943  138.2993  163.1218 C.ar    1  UNL1        0.0174
     30 C         141.4742  137.8047  161.7079 C.ar    1  UNL1        0.0381
     31 C         142.6141  138.3415  158.4018 C.3     1  UNL1        0.2525
     32 O         142.8490  137.3953  159.5417 O.3     1  UNL1       -0.4714
     33 C         138.7245  138.6237  166.0402 C.1     1  UNL1        0.1017
     34 N         137.4295  138.5387  166.7925 N.1     1  UNL1       -0.1908
@<TRIPOS>BOND
     1    31    32    1
     2    32    21    1
     3    21    22   ar
     4    22    23   ar
     5    23    24   ar
     6    24    25   ar
     7    25    26   ar
     8    26    27   ar
     9    27    33    1
    10    33    34    3
    11    27    28   ar
    12    28    20    1
    13    20    19    1
    14    19     1    1
    15     1     2    1
    16     2     3    1
    17     3     4    1
    18     4     7    1
    19     7     9    1
    20     9    10    1
    21    10    11   ar
    22    11    12   ar
    23    12    13   ar
    24    13    14   ar
    25    14    15   ar
    26    13    16    1
    27    16    17    1
    28    17    18    1
    29     4     5    1
    30     5     6    1
    31    28    29   ar
    32    29    30   ar
    33    30    21   ar
    34    29    24   ar
    35     6     1    1
    36    15    10   ar
    37    18    12    1
    38     7     8    1
@<TRIPOS>MOLECULE
*****
 34 38 0 0 0
SMALL
GASTEIGER

@<TRIPOS>ATOM
      1 N         142.5711  143.5784  163.4450 N.3     1  UNL1       -0.2723
      2 C         142.6770  143.3861  161.9611 C.3     1  UNL1        0.0735
      3 C         143.4212  142.2067  161.4089 C.3     1  UNL1        0.0331
      4 C         144.0596  141.2194  162.3405 C.3     1  UNL1        0.0570
      5 C         143.9537  141.4117  163.8244 C.3     1  UNL1        0.0331
      6 C         143.2095  142.5912  164.3766 C.3     1  UNL1        0.0735
      7 N         144.8038  140.0400  161.7883 N.3     1  UNL1       -0.2934
      8 H         145.3260  139.6320  162.5636 H       1  UNL1        0.1236
      9 C         144.0526  138.9183  161.1344 C.3     1  UNL1        0.1151
     10 C         142.6830  138.5485  161.6217 C.ar    1  UNL1        0.0756
     11 C         141.4723  138.9498  160.8323 C.ar    1  UNL1        0.0254
     12 C         140.1027  138.5800  161.3197 C.ar    1  UNL1        0.0653
     13 C         139.9438  137.8088  162.5964 C.ar    1  UNL1        0.1646
     14 C         141.1545  137.4075  163.3859 C.ar    1  UNL1        0.1358
     15 N         142.5241  137.7773  162.8985 N.ar    1  UNL1       -0.2436
     16 O         138.4779  137.5879  162.8251 O.3     1  UNL1       -0.4611
     17 C         137.7309  138.2224  161.6897 C.3     1  UNL1        0.2681
     18 S         138.7351  138.8356  160.7593 S.3     1  UNL1       -0.0640
     19 C         141.8270  144.7579  163.9972 C.3     1  UNL1        0.0768
     20 C         140.5202  144.5556  164.7054 C.3     1  UNL1        0.0444
     21 C         139.9087  140.7743  167.0672 C.ar    1  UNL1        0.1388
     22 C         138.9449  139.7334  166.5800 C.ar    1  UNL1        0.0384
     23 C         138.1849  139.9528  165.3056 C.ar    1  UNL1        0.0222
     24 C         138.3887  141.2132  164.5183 C.ar    1  UNL1        0.0812
     25 N         137.6286  141.4327  163.2439 N.ar    1  UNL1       -0.2432
     26 C         137.8324  142.6931  162.4566 C.ar    1  UNL1        0.1087
     27 C         138.7963  143.7341  162.9438 C.ar    1  UNL1        0.0836
     28 C         139.5563  143.5146  164.2183 C.ar    1  UNL1       -0.0081
     29 C         139.3525  142.2542  165.0055 C.ar    1  UNL1        0.0174
     30 C         140.1125  142.0347  166.2799 C.ar    1  UNL1        0.0381
     31 C         139.9345  140.2057  169.6021 C.3     1  UNL1        0.2525
     32 O         140.6688  140.5549  168.3416 O.3     1  UNL1       -0.4714
     33 C         139.0001  144.9945  162.1566 C.1     1  UNL1        0.1017
     34 N         139.2039  146.2549  161.3692 N.1     1  UNL1       -0.1908
@<TRIPOS>BOND
     1    31    32    1
     2    32    21    1
     3    21    22   ar
     4    22    23   ar
     5    23    24   ar
     6    24    25   ar
     7    25    26   ar
     8    26    27   ar
     9    27    33    1
    10    33    34    3
    11    27    28   ar
    12    28    20    1
    13    20    19    1
    14    19     1    1
    15     1     2    1
    16     2     3    1
    17     3     4    1
    18     4     7    1
    19     7     9    1
    20     9    10    1
    21    10    11   ar
    22    11    12   ar
    23    12    13   ar
    24    13    14   ar
    25    14    15   ar
    26    13    16    1
    27    16    17    1
    28    17    18    1
    29     4     5    1
    30     5     6    1
    31    28    29   ar
    32    29    30   ar
    33    30    21   ar
    34    29    24   ar
    35     6     1    1
    36    15    10   ar
    37    18    12    1
    38     7     8    1
@<TRIPOS>MOLECULE
*****
 34 38 0 0 0
SMALL
GASTEIGER

@<TRIPOS>ATOM
      1 N         143.3882  139.0571  163.5406 N.3     1  UNL1       -0.2723
      2 C         142.4679  138.3878  164.5179 C.3     1  UNL1        0.0735
      3 C         141.1710  137.8005  164.0456 C.3     1  UNL1        0.0331
      4 C         140.7944  137.8824  162.5960 C.3     1  UNL1        0.0570
      5 C         141.7146  138.5517  161.6186 C.3     1  UNL1        0.0331
      6 C         143.0116  139.1390  162.0910 C.3     1  UNL1        0.0735
      7 N         139.4975  137.2951  162.1237 N.3     1  UNL1       -0.2934
      8 H         139.3923  136.3965  162.5948 H       1  UNL1        0.1236
      9 C         138.2150  138.0452  162.3304 C.3     1  UNL1        0.1151
     10 C         138.1791  139.5336  162.1485 C.ar    1  UNL1        0.0756
     11 C         137.8863  140.4254  163.3185 C.ar    1  UNL1        0.0254
     12 C         137.8503  141.9139  163.1365 C.ar    1  UNL1        0.0653
     13 C         138.1071  142.5106  161.7845 C.ar    1  UNL1        0.1646
     14 C         138.3999  141.6188  160.6145 C.ar    1  UNL1        0.1358
     15 N         138.4359  140.1304  160.7964 N.ar    1  UNL1       -0.2436
     16 O         138.0060  144.0020  161.9093 O.3     1  UNL1       -0.4611
     17 C         137.6867  144.3270  163.3384 C.3     1  UNL1        0.2681
     18 S         137.5905  143.0364  164.0969 S.3     1  UNL1       -0.0640
     19 C         144.6851  139.6444  164.0128 C.3     1  UNL1        0.0768
     20 C         144.7568  141.0926  164.3969 C.3     1  UNL1        0.0444
     21 C         142.0776  141.2823  168.0074 C.ar    1  UNL1        0.1388
     22 C         140.8391  142.1280  167.9788 C.ar    1  UNL1        0.0384
     23 C         140.4937  142.9106  166.7466 C.ar    1  UNL1        0.0222
     24 C         141.3868  142.8474  165.5431 C.ar    1  UNL1        0.0812
     25 N         141.0414  143.6300  164.3109 N.ar    1  UNL1       -0.2432
     26 C         141.9344  143.5668  163.1074 C.ar    1  UNL1        0.1087
     27 C         143.1729  142.7210  163.1361 C.ar    1  UNL1        0.0836
     28 C         143.5184  141.9384  164.3682 C.ar    1  UNL1       -0.0081
     29 C         142.6252  142.0016  165.5718 C.ar    1  UNL1        0.0174
     30 C         142.9706  141.2191  166.8040 C.ar    1  UNL1        0.0381
     31 C         141.3818  139.6485  169.9039 C.3     1  UNL1        0.2525
     32 O         142.4230  140.4997  169.2396 O.3     1  UNL1       -0.4714
     33 C         144.0660  142.6578  161.9326 C.1     1  UNL1        0.1017
     34 N         144.9591  142.5945  160.7290 N.1     1  UNL1       -0.1908
@<TRIPOS>BOND
     1    31    32    1
     2    32    21    1
     3    21    22   ar
     4    22    23   ar
     5    23    24   ar
     6    24    25   ar
     7    25    26   ar
     8    26    27   ar
     9    27    33    1
    10    33    34    3
    11    27    28   ar
    12    28    20    1
    13    20    19    1
    14    19     1    1
    15     1     2    1
    16     2     3    1
    17     3     4    1
    18     4     7    1
    19     7     9    1
    20     9    10    1
    21    10    11   ar
    22    11    12   ar
    23    12    13   ar
    24    13    14   ar
    25    14    15   ar
    26    13    16    1
    27    16    17    1
    28    17    18    1
    29     4     5    1
    30     5     6    1
    31    28    29   ar
    32    29    30   ar
    33    30    21   ar
    34    29    24   ar
    35     6     1    1
    36    15    10   ar
    37    18    12    1
    38     7     8    1
@<TRIPOS>MOLECULE
*****
 34 38 0 0 0
SMALL
GASTEIGER

@<TRIPOS>ATOM
      1 N         141.7958  138.0894  164.3626 N.3     1  UNL1       -0.2723
      2 C         142.8194  138.4658  165.3925 C.3     1  UNL1        0.0735
      3 C         144.0620  139.1988  164.9819 C.3     1  UNL1        0.0331
      4 C         144.2810  139.5555  163.5414 C.3     1  UNL1        0.0570
      5 C         143.2574  139.1791  162.5116 C.3     1  UNL1        0.0331
      6 C         142.0148  138.4460  162.9222 C.3     1  UNL1        0.0735
      7 N         145.5236  140.2885  163.1309 N.3     1  UNL1       -0.2934
      8 H         145.7178  140.0212  162.1658 H       1  UNL1        0.1236
      9 C         145.5615  141.7872  163.1811 C.3     1  UNL1        0.1151
     10 C         144.4398  142.5861  162.5866 C.ar    1  UNL1        0.0756
     11 C         143.5811  143.4442  163.4677 C.ar    1  UNL1        0.0254
     12 C         142.4593  144.2432  162.8731 C.ar    1  UNL1        0.0653
     13 C         142.1964  144.1840  161.3976 C.ar    1  UNL1        0.1646
     14 C         143.0551  143.3259  160.5165 C.ar    1  UNL1        0.1358
     15 N         144.1768  142.5270  161.1110 N.ar    1  UNL1       -0.2436
     16 O         141.0277  145.0756  161.0989 O.3     1  UNL1       -0.4611
     17 C         140.5684  145.6858  162.3899 C.3     1  UNL1        0.2681
     18 S         141.4532  145.1713  163.4865 S.3     1  UNL1       -0.0640
     19 C         140.5532  137.3564  164.7732 C.3     1  UNL1        0.0768
     20 C         139.3497  138.1218  165.2377 C.3     1  UNL1        0.0444
     21 C         140.7977  141.0120  168.3683 C.ar    1  UNL1        0.1388
     22 C         140.7082  142.4892  168.1239 C.ar    1  UNL1        0.0384
     23 C         140.1360  143.0031  166.8361 C.ar    1  UNL1        0.0222
     24 C         139.6533  142.0397  165.7926 C.ar    1  UNL1        0.0812
     25 N         139.0812  142.5536  164.5047 N.ar    1  UNL1       -0.2432
     26 C         138.5985  141.5902  163.4612 C.ar    1  UNL1        0.1087
     27 C         138.6880  140.1129  163.7055 C.ar    1  UNL1        0.0836
     28 C         139.2602  139.5991  164.9934 C.ar    1  UNL1       -0.0081
     29 C         139.7429  140.5625  166.0369 C.ar    1  UNL1        0.0174
     30 C         140.3151  140.0487  167.3248 C.ar    1  UNL1        0.0381
     31 C         140.9174  141.0795  170.9627 C.3     1  UNL1        0.2525
     32 O         141.3699  140.4981  169.6561 O.3     1  UNL1       -0.4714
     33 C         138.2054  139.1496  162.6620 C.1     1  UNL1        0.1017
     34 N         137.7227  138.1861  161.6185 N.1     1  UNL1       -0.1908
@<TRIPOS>BOND
     1    31    32    1
     2    32    21    1
     3    21    22   ar
     4    22    23   ar
     5    23    24   ar
     6    24    25   ar
     7    25    26   ar
     8    26    27   ar
     9    27    33    1
    10    33    34    3
    11    27    28   ar
    12    28    20    1
    13    20    19    1
    14    19     1    1
    15     1     2    1
    16     2     3    1
    17     3     4    1
    18     4     7    1
    19     7     9    1
    20     9    10    1
    21    10    11   ar
    22    11    12   ar
    23    12    13   ar
    24    13    14   ar
    25    14    15   ar
    26    13    16    1
    27    16    17    1
    28    17    18    1
    29     4     5    1
    30     5     6    1
    31    28    29   ar
    32    29    30   ar
    33    30    21   ar
    34    29    24   ar
    35     6     1    1
    36    15    10   ar
    37    18    12    1
    38     7     8    1
@<TRIPOS>MOLECULE
*****
 34 38 0 0 0
SMALL
GASTEIGER

@<TRIPOS>ATOM
      1 N         137.8230  142.7890  163.7904 N.3     1  UNL1       -0.2723
      2 C         137.8956  141.5198  164.5866 C.3     1  UNL1        0.0735
      3 C         137.9821  140.1975  163.8838 C.3     1  UNL1        0.0331
      4 C         137.9961  140.1443  162.3848 C.3     1  UNL1        0.0570
      5 C         137.9235  141.4134  161.5886 C.3     1  UNL1        0.0331
      6 C         137.8369  142.7358  162.2914 C.3     1  UNL1        0.0735
      7 N         138.0827  138.8219  161.6820 N.3     1  UNL1       -0.2934
      8 H         138.0052  139.0137  160.6832 H       1  UNL1        0.1236
      9 C         139.2924  137.9538  161.8637 C.3     1  UNL1        0.1151
     10 C         140.5652  138.2801  161.1402 C.ar    1  UNL1        0.0756
     11 C         140.5302  139.1395  159.9113 C.ar    1  UNL1        0.0254
     12 C         141.8031  139.4658  159.1878 C.ar    1  UNL1        0.0653
     13 C         143.1108  138.9327  159.6932 C.ar    1  UNL1        0.1646
     14 C         143.1458  138.0733  160.9221 C.ar    1  UNL1        0.1358
     15 N         141.8730  137.7470  161.6456 N.ar    1  UNL1       -0.2436
     16 O         144.1946  139.4190  158.7773 O.3     1  UNL1       -0.4611
     17 C         143.5567  140.2527  157.7059 C.3     1  UNL1        0.2681
     18 S         142.0786  140.2816  157.9596 S.3     1  UNL1       -0.0640
     19 C         137.7364  144.1113  164.4931 C.3     1  UNL1        0.0768
     20 C         138.9900  144.8420  164.8735 C.3     1  UNL1        0.0444
     21 C         141.1833  141.9705  167.5556 C.ar    1  UNL1        0.1388
     22 C         142.5205  141.4309  167.1426 C.ar    1  UNL1        0.0384
     23 C         143.1267  141.8485  165.8357 C.ar    1  UNL1        0.0222
     24 C         142.3956  142.8056  164.9416 C.ar    1  UNL1        0.0812
     25 N         143.0018  143.2232  163.6347 N.ar    1  UNL1       -0.2432
     26 C         142.2708  144.1804  162.7407 C.ar    1  UNL1        0.1087
     27 C         140.9334  144.7200  163.1536 C.ar    1  UNL1        0.0836
     28 C         140.3272  144.3024  164.4605 C.ar    1  UNL1       -0.0081
     29 C         141.0584  143.3452  165.3546 C.ar    1  UNL1        0.0174
     30 C         140.4522  142.9276  166.6616 C.ar    1  UNL1        0.0381
     31 C         139.6389  140.3837  168.9146 C.3     1  UNL1        0.2525
     32 O         140.5771  141.5529  168.8626 O.3     1  UNL1       -0.4714
     33 C         140.2024  145.6772  162.2596 C.1     1  UNL1        0.1017
     34 N         139.4712  146.6344  161.3654 N.1     1  UNL1       -0.1908
@<TRIPOS>BOND
     1    31    32    1
     2    32    21    1
     3    21    22   ar
     4    22    23   ar
     5    23    24   ar
     6    24    25   ar
     7    25    26   ar
     8    26    27   ar
     9    27    33    1
    10    33    34    3
    11    27    28   ar
    12    28    20    1
    13    20    19    1
    14    19     1    1
    15     1     2    1
    16     2     3    1
    17     3     4    1
    18     4     7    1
    19     7     9    1
    20     9    10    1
    21    10    11   ar
    22    11    12   ar
    23    12    13   ar
    24    13    14   ar
    25    14    15   ar
    26    13    16    1
    27    16    17    1
    28    17    18    1
    29     4     5    1
    30     5     6    1
    31    28    29   ar
    32    29    30   ar
    33    30    21   ar
    34    29    24   ar
    35     6     1    1
    36    15    10   ar
    37    18    12    1
    38     7     8    1
@<TRIPOS>MOLECULE
*****
 34 38 0 0 0
SMALL
GASTEIGER

@<TRIPOS>ATOM
      1 N         138.4727  140.2401  164.0433 N.3     1  UNL1       -0.2723
      2 C         138.2492  141.3980  164.9702 C.3     1  UNL1        0.0735
      3 C         138.0396  142.7749  164.4133 C.3     1  UNL1        0.0331
      4 C         138.0535  142.9939  162.9294 C.3     1  UNL1        0.0570
      5 C         138.2770  141.8359  162.0025 C.3     1  UNL1        0.0331
      6 C         138.4865  140.4590  162.5595 C.3     1  UNL1        0.0735
      7 N         137.8439  144.3708  162.3724 N.3     1  UNL1       -0.2934
      8 H         137.0678  144.7828  162.8902 H       1  UNL1        0.1236
      9 C         138.9625  145.3697  162.4012 C.3     1  UNL1        0.1151
     10 C         140.3847  144.9009  162.4884 C.ar    1  UNL1        0.0756
     11 C         141.0156  144.1985  161.3229 C.ar    1  UNL1        0.0254
     12 C         142.4379  143.7297  161.4101 C.ar    1  UNL1        0.0653
     13 C         143.2291  143.9633  162.6628 C.ar    1  UNL1        0.1646
     14 C         142.5981  144.6658  163.8283 C.ar    1  UNL1        0.1358
     15 N         141.1760  145.1346  163.7412 N.ar    1  UNL1       -0.2436
     16 O         144.6009  143.3924  162.4578 O.3     1  UNL1       -0.4611
     17 C         144.6576  142.8059  161.0784 C.3     1  UNL1        0.2681
     18 S         143.3207  143.0144  160.4309 S.3     1  UNL1       -0.0640
     19 C         138.6822  138.8632  164.6003 C.3     1  UNL1        0.0768
     20 C         139.9628  138.5261  165.3050 C.3     1  UNL1        0.0444
     21 C         141.0870  141.3488  168.6244 C.ar    1  UNL1        0.1388
     22 C         142.2824  142.2426  168.4762 C.ar    1  UNL1        0.0384
     23 C         143.1031  142.1955  167.2215 C.ar    1  UNL1        0.0222
     24 C         142.7284  141.2546  166.1150 C.ar    1  UNL1        0.0812
     25 N         143.5491  141.2076  164.8604 N.ar    1  UNL1       -0.2432
     26 C         143.1744  140.2667  163.7539 C.ar    1  UNL1        0.1087
     27 C         141.9789  139.3728  163.9021 C.ar    1  UNL1        0.0836
     28 C         141.1582  139.4199  165.1568 C.ar    1  UNL1       -0.0081
     29 C         141.5330  140.3608  166.2633 C.ar    1  UNL1        0.0174
     30 C         140.7123  140.4079  167.5180 C.ar    1  UNL1        0.0381
     31 C         140.9220  141.1899  171.2123 C.3     1  UNL1        0.2525
     32 O         140.2663  141.3959  169.8791 O.3     1  UNL1       -0.4714
     33 C         141.6042  138.4319  162.7957 C.1     1  UNL1        0.1017
     34 N         141.2295  137.4910  161.6892 N.1     1  UNL1       -0.1908
@<TRIPOS>BOND
     1    31    32    1
     2    32    21    1
     3    21    22   ar
     4    22    23   ar
     5    23    24   ar
     6    24    25   ar
     7    25    26   ar
     8    26    27   ar
     9    27    33    1
    10    33    34    3
    11    27    28   ar
    12    28    20    1
    13    20    19    1
    14    19     1    1
    15     1     2    1
    16     2     3    1
    17     3     4    1
    18     4     7    1
    19     7     9    1
    20     9    10    1
    21    10    11   ar
    22    11    12   ar
    23    12    13   ar
    24    13    14   ar
    25    14    15   ar
    26    13    16    1
    27    16    17    1
    28    17    18    1
    29     4     5    1
    30     5     6    1
    31    28    29   ar
    32    29    30   ar
    33    30    21   ar
    34    29    24   ar
    35     6     1    1
    36    15    10   ar
    37    18    12    1
    38     7     8    1
@<TRIPOS>MOLECULE
*****
 34 38 0 0 0
SMALL
GASTEIGER

@<TRIPOS>ATOM
      1 N         138.6410  138.7085  162.6605 N.3     1  UNL1       -0.2723
      2 C         139.2697  138.5224  161.3114 C.3     1  UNL1        0.0735
      3 C         139.1763  139.6111  160.2839 C.3     1  UNL1        0.0331
      4 C         138.4542  140.8860  160.6054 C.3     1  UNL1        0.0570
      5 C         137.8255  141.0721  161.9545 C.3     1  UNL1        0.0331
      6 C         137.9189  139.9833  162.9821 C.3     1  UNL1        0.0735
      7 N         138.3608  141.9747  159.5778 N.3     1  UNL1       -0.2934
      8 H         137.5579  142.5506  159.8310 H       1  UNL1        0.1236
      9 C         139.5151  142.9094  159.3684 C.3     1  UNL1        0.1151
     10 C         140.1180  143.6305  160.5374 C.ar    1  UNL1        0.0756
     11 C         141.5814  143.4870  160.8336 C.ar    1  UNL1        0.0254
     12 C         142.1842  144.2081  162.0027 C.ar    1  UNL1        0.0653
     13 C         141.3236  145.0726  162.8755 C.ar    1  UNL1        0.1646
     14 C         139.8601  145.2161  162.5793 C.ar    1  UNL1        0.1358
     15 N         139.2573  144.4951  161.4103 N.ar    1  UNL1       -0.2436
     16 O         142.1922  145.6569  163.9498 O.3     1  UNL1       -0.4611
     17 C         143.5896  145.1534  163.7409 C.3     1  UNL1        0.2681
     18 S         143.5847  144.2580  162.5375 S.3     1  UNL1       -0.0640
     19 C         138.7343  137.6198  163.6881 C.3     1  UNL1        0.0768
     20 C         139.8718  137.6070  164.6660 C.3     1  UNL1        0.0444
     21 C         143.5854  139.8270  163.4289 C.ar    1  UNL1        0.1388
     22 C         143.9772  141.0881  164.1402 C.ar    1  UNL1        0.0384
     23 C         143.1312  141.6092  165.2638 C.ar    1  UNL1        0.0222
     24 C         141.8934  140.8693  165.6762 C.ar    1  UNL1        0.0812
     25 N         141.0473  141.3904  166.7999 N.ar    1  UNL1       -0.2432
     26 C         139.8095  140.6505  167.2123 C.ar    1  UNL1        0.1087
     27 C         139.4176  139.3893  166.5009 C.ar    1  UNL1        0.0836
     28 C         140.2636  138.8681  165.3773 C.ar    1  UNL1       -0.0081
     29 C         141.5015  139.6082  164.9649 C.ar    1  UNL1        0.0174
     30 C         142.3475  139.0870  163.8413 C.ar    1  UNL1        0.0381
     31 C         143.9343  139.3863  160.8923 C.3     1  UNL1        0.2525
     32 O         144.4314  139.3058  162.3052 O.3     1  UNL1       -0.4714
     33 C         138.1797  138.6493  166.9133 C.1     1  UNL1        0.1017
     34 N         136.9417  137.9093  167.3257 N.1     1  UNL1       -0.1908
@<TRIPOS>BOND
     1    31    32    1
     2    32    21    1
     3    21    22   ar
     4    22    23   ar
     5    23    24   ar
     6    24    25   ar
     7    25    26   ar
     8    26    27   ar
     9    27    33    1
    10    33    34    3
    11    27    28   ar
    12    28    20    1
    13    20    19    1
    14    19     1    1
    15     1     2    1
    16     2     3    1
    17     3     4    1
    18     4     7    1
    19     7     9    1
    20     9    10    1
    21    10    11   ar
    22    11    12   ar
    23    12    13   ar
    24    13    14   ar
    25    14    15   ar
    26    13    16    1
    27    16    17    1
    28    17    18    1
    29     4     5    1
    30     5     6    1
    31    28    29   ar
    32    29    30   ar
    33    30    21   ar
    34    29    24   ar
    35     6     1    1
    36    15    10   ar
    37    18    12    1
    38     7     8    1
