@<TRIPOS>MOLECULE
*****
 27 29 0 0 0
SMALL
GASTEIGER

@<TRIPOS>ATOM
      1 C         142.3062  138.5437  164.2373 C.ar    1  UNL1        0.1390
      2 C         140.9709  139.2199  164.1385 C.ar    1  UNL1        0.0366
      3 C         140.3586  139.8519  165.3533 C.ar    1  UNL1        0.0001
      4 C         141.0815  139.8076  166.6668 C.ar    1  UNL1       -0.0078
      5 C         142.4168  139.1314  166.7656 C.ar    1  UNL1        0.0001
      6 C         143.0291  138.4994  165.5509 C.ar    1  UNL1        0.0366
      7 C         140.4692  140.4396  167.8816 C.3     1  UNL1        0.0772
      8 C         139.4239  139.8238  168.7638 C.3     1  UNL1        0.0221
      9 C         139.1032  140.8019  169.8548 C.3     1  UNL1        0.0268
     10 C         139.9504  142.0223  169.6470 C.3     1  UNL1        0.1315
     11 N         140.7945  141.7983  168.4274 N.3     1  UNL1       -0.2890
     12 H         141.7824  141.8436  168.6772 H       1  UNL1        0.1239
     13 C         139.9528  143.2509  170.5076 C.2     1  UNL1        0.2336
     14 N         138.9000  143.4310  171.5607 N.am    1  UNL1       -0.3277
     15 O         141.0081  144.2992  170.3150 O.2     1  UNL1       -0.2739
     16 H         138.2073  142.7429  171.6870 H       1  UNL1        0.1450
     17 H         138.9016  144.2374  172.1255 H       1  UNL1        0.1450
     18 O         142.9186  137.9117  163.0225 O.3     1  UNL1       -0.4706
     19 C         143.9635  138.6496  162.2393 C.3     1  UNL1        0.2320
     20 C         143.6513  142.5979  161.9866 C.ar    1  UNL1        0.0682
     21 C         144.6708  143.0282  162.9992 C.ar    1  UNL1        0.0103
     22 C         145.4546  141.9990  163.7584 C.ar    1  UNL1        0.0005
     23 C         145.2189  140.5395  163.5051 C.ar    1  UNL1       -0.0006
     24 C         144.1993  140.1092  162.4926 C.ar    1  UNL1        0.0218
     25 C         143.4155  141.1384  161.7333 C.ar    1  UNL1        0.0096
     26 N         142.0837  144.6562  160.4681 N.1     1  UNL1       -0.1908
     27 C         142.8675  143.6270  161.2274 C.1     1  UNL1        0.1004
@<TRIPOS>BOND
     1    26    27    3
     2    27    20    1
     3    20    21   ar
     4    21    22   ar
     5    22    23   ar
     6    23    24   ar
     7    24    19    1
     8    19    18    1
     9    18     1    1
    10     1     2   ar
    11     2     3   ar
    12     3     4   ar
    13     7     4    1
    14     7     8    1
    15     8     9    1
    16     9    10    1
    17    10    13    1
    18    13    14   am
    19    13    15    2
    20    10    11    1
    21     4     5   ar
    22     5     6   ar
    23    24    25   ar
    24    25    20   ar
    25     6     1   ar
    26    11     7    1
    27    14    16    1
    28    14    17    1
    29    11    12    1
@<TRIPOS>MOLECULE
*****
 27 29 0 0 0
SMALL
GASTEIGER

@<TRIPOS>ATOM
      1 C         143.2894  139.2663  164.2202 C.ar    1  UNL1        0.1390
      2 C         142.6515  138.6162  165.4120 C.ar    1  UNL1        0.0366
      3 C         142.3513  139.4273  166.6375 C.ar    1  UNL1        0.0001
      4 C         142.6890  140.8884  166.6713 C.ar    1  UNL1       -0.0078
      5 C         143.3270  141.5384  165.4795 C.ar    1  UNL1        0.0001
      6 C         143.6272  140.7274  164.2539 C.ar    1  UNL1        0.0366
      7 C         142.3888  141.6994  167.8970 C.3     1  UNL1        0.0772
      8 C         143.3833  142.1324  168.9331 C.3     1  UNL1        0.0221
      9 C         142.6506  142.9204  169.9782 C.3     1  UNL1        0.0268
     10 C         141.2032  142.9745  169.5878 C.3     1  UNL1        0.1315
     11 N         141.0415  142.2199  168.3016 N.3     1  UNL1       -0.2890
     12 H         140.6792  142.8416  167.5787 H       1  UNL1        0.1239
     13 C         140.1097  143.6624  170.3500 C.2     1  UNL1        0.2336
     14 N         139.0856  142.8522  171.0881 N.am    1  UNL1       -0.3277
     15 O         140.0402  145.1605  170.3740 O.2     1  UNL1       -0.2739
     16 H         139.1313  141.8688  171.0723 H       1  UNL1        0.1450
     17 H         138.3679  143.3037  171.5883 H       1  UNL1        0.1450
     18 O         143.5896  138.4553  162.9945 O.3     1  UNL1       -0.4706
     19 C         142.5738  138.3528  161.8956 C.3     1  UNL1        0.2320
     20 C         139.0656  140.1902  162.1532 C.ar    1  UNL1        0.0682
     21 C         138.2260  139.1125  162.7725 C.ar    1  UNL1        0.0103
     22 C         138.8356  137.7816  163.0995 C.ar    1  UNL1        0.0005
     23 C         140.2849  137.5283  162.8072 C.ar    1  UNL1       -0.0006
     24 C         141.1245  138.6060  162.1879 C.ar    1  UNL1        0.0218
     25 C         140.5149  139.9370  161.8609 C.ar    1  UNL1        0.0096
     26 N         137.8463  142.8521  161.4991 N.1     1  UNL1       -0.1908
     27 C         138.4560  141.5211  161.8262 C.1     1  UNL1        0.1004
@<TRIPOS>BOND
     1    26    27    3
     2    27    20    1
     3    20    21   ar
     4    21    22   ar
     5    22    23   ar
     6    23    24   ar
     7    24    19    1
     8    19    18    1
     9    18     1    1
    10     1     2   ar
    11     2     3   ar
    12     3     4   ar
    13     7     4    1
    14     7     8    1
    15     8     9    1
    16     9    10    1
    17    10    13    1
    18    13    14   am
    19    13    15    2
    20    10    11    1
    21     4     5   ar
    22     5     6   ar
    23    24    25   ar
    24    25    20   ar
    25     6     1   ar
    26    11     7    1
    27    14    16    1
    28    14    17    1
    29    11    12    1
@<TRIPOS>MOLECULE
*****
 27 29 0 0 0
SMALL
GASTEIGER

@<TRIPOS>ATOM
      1 C         138.9129  139.4126  163.9349 C.ar    1  UNL1        0.1390
      2 C         138.1677  139.4348  165.2365 C.ar    1  UNL1        0.0366
      3 C         138.8981  139.7258  166.5139 C.ar    1  UNL1        0.0001
      4 C         140.3736  139.9947  166.4897 C.ar    1  UNL1       -0.0078
      5 C         141.1187  139.9726  165.1881 C.ar    1  UNL1        0.0001
      6 C         140.3884  139.6815  163.9107 C.ar    1  UNL1        0.0366
      7 C         141.1039  140.2858  167.7672 C.3     1  UNL1        0.0772
      8 C         142.2782  139.5228  168.3050 C.3     1  UNL1        0.0221
      9 C         142.6883  140.1563  169.6013 C.3     1  UNL1        0.0268
     10 C         141.7675  141.3108  169.8647 C.3     1  UNL1        0.1315
     11 N         140.7883  141.3908  168.7312 N.3     1  UNL1       -0.2890
     12 H         140.8735  142.2931  168.2633 H       1  UNL1        0.1239
     13 C         141.8171  142.2249  171.0531 C.2     1  UNL1        0.2336
     14 N         142.9064  143.2499  171.1658 N.am    1  UNL1       -0.3277
     15 O         140.7775  142.1138  172.1286 O.2     1  UNL1       -0.2739
     16 H         143.5887  143.3228  170.4598 H       1  UNL1        0.1450
     17 H         142.9390  143.8499  171.9457 H       1  UNL1        0.1450
     18 O         138.1825  139.1216  162.6574 O.3     1  UNL1       -0.4706
     19 C         137.6555  140.2497  161.8210 C.3     1  UNL1        0.2320
     20 C         139.5123  143.7507  161.6069 C.ar    1  UNL1        0.0682
     21 C         138.8615  144.4864  162.7405 C.ar    1  UNL1        0.0103
     22 C         137.8087  143.8100  163.5676 C.ar    1  UNL1        0.0005
     23 C         137.4067  142.3978  163.2611 C.ar    1  UNL1       -0.0006
     24 C         138.0575  141.6620  162.1276 C.ar    1  UNL1        0.0218
     25 C         139.1103  142.3384  161.3005 C.ar    1  UNL1        0.0096
     26 N         141.6178  145.1035  159.9527 N.1     1  UNL1       -0.1908
     27 C         140.5650  144.4271  160.7798 C.1     1  UNL1        0.1004
@<TRIPOS>BOND
     1    26    27    3
     2    27    20    1
     3    20    21   ar
     4    21    22   ar
     5    22    23   ar
     6    23    24   ar
     7    24    19    1
     8    19    18    1
     9    18     1    1
    10     1     2   ar
    11     2     3   ar
    12     3     4   ar
    13     7     4    1
    14     7     8    1
    15     8     9    1
    16     9    10    1
    17    10    13    1
    18    13    14   am
    19    13    15    2
    20    10    11    1
    21     4     5   ar
    22     5     6   ar
    23    24    25   ar
    24    25    20   ar
    25     6     1   ar
    26    11     7    1
    27    14    16    1
    28    14    17    1
    29    11    12    1
@<TRIPOS>MOLECULE
*****
 27 29 0 0 0
SMALL
GASTEIGER

@<TRIPOS>ATOM
      1 C         139.3072  138.0945  164.3674 C.ar    1  UNL1        0.1390
      2 C         140.8008  138.0189  164.4839 C.ar    1  UNL1        0.0366
      3 C         141.5038  138.7403  165.5953 C.ar    1  UNL1        0.0001
      4 C         140.7132  139.5372  166.5904 C.ar    1  UNL1       -0.0078
      5 C         139.2197  139.6127  166.4739 C.ar    1  UNL1        0.0001
      6 C         138.5167  138.8913  165.3624 C.ar    1  UNL1        0.0366
      7 C         141.4163  140.2585  167.7019 C.3     1  UNL1        0.0772
      8 C         142.5894  139.7450  168.4829 C.3     1  UNL1        0.0221
      9 C         142.9679  140.7891  169.4912 C.3     1  UNL1        0.0268
     10 C         142.0286  141.9479  169.3333 C.3     1  UNL1        0.1315
     11 N         141.0697  141.6200  168.2274 N.3     1  UNL1       -0.2890
     12 H         141.1526  142.3105  167.4813 H       1  UNL1        0.1239
     13 C         142.0453  143.2126  170.1397 C.2     1  UNL1        0.2336
     14 N         143.2568  143.5705  170.9484 N.am    1  UNL1       -0.3277
     15 O         140.8505  144.1194  170.1373 O.2     1  UNL1       -0.2739
     16 H         144.0411  142.9753  170.9500 H       1  UNL1        0.1450
     17 H         143.2678  144.4005  171.4777 H       1  UNL1        0.1450
     18 O         138.6041  137.3731  163.2559 O.3     1  UNL1       -0.4706
     19 C         138.0875  138.1384  162.0738 C.3     1  UNL1        0.2320
     20 C         138.8788  142.0093  161.6992 C.ar    1  UNL1        0.0682
     21 C         140.0937  141.9665  160.8204 C.ar    1  UNL1        0.0103
     22 C         140.6398  140.6477  160.3594 C.ar    1  UNL1        0.0005
     23 C         139.9711  139.3717  160.7772 C.ar    1  UNL1       -0.0006
     24 C         138.7563  139.4145  161.6560 C.ar    1  UNL1        0.0218
     25 C         138.2102  140.7333  162.1170 C.ar    1  UNL1        0.0096
     26 N         137.7865  144.6469  162.6212 N.1     1  UNL1       -0.1908
     27 C         138.3327  143.3281  162.1602 C.1     1  UNL1        0.1004
@<TRIPOS>BOND
     1    26    27    3
     2    27    20    1
     3    20    21   ar
     4    21    22   ar
     5    22    23   ar
     6    23    24   ar
     7    24    19    1
     8    19    18    1
     9    18     1    1
    10     1     2   ar
    11     2     3   ar
    12     3     4   ar
    13     7     4    1
    14     7     8    1
    15     8     9    1
    16     9    10    1
    17    10    13    1
    18    13    14   am
    19    13    15    2
    20    10    11    1
    21     4     5   ar
    22     5     6   ar
    23    24    25   ar
    24    25    20   ar
    25     6     1   ar
    26    11     7    1
    27    14    16    1
    28    14    17    1
    29    11    12    1
@<TRIPOS>MOLECULE
*****
 27 29 0 0 0
SMALL
GASTEIGER

@<TRIPOS>ATOM
      1 C         142.8081  139.8014  162.9532 C.ar    1  UNL1        0.1390
      2 C         141.4252  140.0472  163.4795 C.ar    1  UNL1        0.0366
      3 C         141.1631  139.9890  164.9553 C.ar    1  UNL1        0.0001
      4 C         142.2839  139.6849  165.9047 C.ar    1  UNL1       -0.0078
      5 C         143.6668  139.4392  165.3783 C.ar    1  UNL1        0.0001
      6 C         143.9289  139.4974  163.9025 C.ar    1  UNL1        0.0366
      7 C         142.0218  139.6267  167.3805 C.3     1  UNL1        0.0772
      8 C         142.9265  139.0230  168.4135 C.3     1  UNL1        0.0221
      9 C         142.2728  139.1851  169.7538 C.3     1  UNL1        0.0268
     10 C         140.9641  139.8890  169.5491 C.3     1  UNL1        0.1315
     11 N         140.8090  140.1619  168.0823 N.3     1  UNL1       -0.2890
     12 H         140.7323  141.1665  167.9234 H       1  UNL1        0.1239
     13 C         139.9828  140.2556  170.6228 C.2     1  UNL1        0.2336
     14 N         138.5220  139.9735  170.4318 N.am    1  UNL1       -0.3277
     15 O         140.4624  140.9044  171.8873 O.2     1  UNL1       -0.2739
     16 H         138.2073  139.5477  169.6018 H       1  UNL1        0.1450
     17 H         137.8780  140.2141  171.1365 H       1  UNL1        0.1450
     18 O         143.0702  139.8597  161.4773 O.3     1  UNL1       -0.4706
     19 C         143.5018  141.1484  160.8425 C.3     1  UNL1        0.2320
     20 C         141.8339  144.5438  162.0423 C.ar    1  UNL1        0.0682
     21 C         142.8700  145.0440  163.0048 C.ar    1  UNL1        0.0103
     22 C         144.1167  144.2456  163.2464 C.ar    1  UNL1        0.0005
     23 C         144.3273  142.9471  162.5257 C.ar    1  UNL1       -0.0006
     24 C         143.2912  142.4469  161.5633 C.ar    1  UNL1        0.0218
     25 C         142.0445  143.2453  161.3216 C.ar    1  UNL1        0.0096
     26 N         139.3405  146.1404  161.5590 N.1     1  UNL1       -0.1908
     27 C         140.5872  145.3421  161.8007 C.1     1  UNL1        0.1004
@<TRIPOS>BOND
     1    26    27    3
     2    27    20    1
     3    20    21   ar
     4    21    22   ar
     5    22    23   ar
     6    23    24   ar
     7    24    19    1
     8    19    18    1
     9    18     1    1
    10     1     2   ar
    11     2     3   ar
    12     3     4   ar
    13     7     4    1
    14     7     8    1
    15     8     9    1
    16     9    10    1
    17    10    13    1
    18    13    14   am
    19    13    15    2
    20    10    11    1
    21     4     5   ar
    22     5     6   ar
    23    24    25   ar
    24    25    20   ar
    25     6     1   ar
    26    11     7    1
    27    14    16    1
    28    14    17    1
    29    11    12    1
@<TRIPOS>MOLECULE
*****
 27 29 0 0 0
SMALL
GASTEIGER

@<TRIPOS>ATOM
      1 C         142.8289  138.7547  163.4783 C.ar    1  UNL1        0.1390
      2 C         143.6298  139.9710  163.8375 C.ar    1  UNL1        0.0366
      3 C         143.5474  140.5410  165.2225 C.ar    1  UNL1        0.0001
      4 C         142.6641  139.8947  166.2483 C.ar    1  UNL1       -0.0078
      5 C         141.8632  138.6785  165.8890 C.ar    1  UNL1        0.0001
      6 C         141.9456  138.1085  164.5040 C.ar    1  UNL1        0.0366
      7 C         142.5817  140.4648  167.6333 C.3     1  UNL1        0.0772
      8 C         142.6745  139.6883  168.9133 C.3     1  UNL1        0.0221
      9 C         142.5423  140.6550  170.0526 C.3     1  UNL1        0.0268
     10 C         142.3677  142.0290  169.4767 C.3     1  UNL1        0.1315
     11 N         142.3921  141.9115  167.9815 N.3     1  UNL1       -0.2890
     12 H         143.1629  142.4624  167.6035 H       1  UNL1        0.1239
     13 C         142.1985  143.2978  170.2587 C.2     1  UNL1        0.2336
     14 N         143.2970  143.7740  171.1624 N.am    1  UNL1       -0.3277
     15 O         140.9309  144.0903  170.1370 O.2     1  UNL1       -0.2739
     16 H         144.1290  143.2538  171.2422 H       1  UNL1        0.1450
     17 H         143.1859  144.6067  171.6756 H       1  UNL1        0.1450
     18 O         142.9112  138.1847  162.0932 O.3     1  UNL1       -0.4706
     19 C         141.9961  138.6911  161.0181 C.3     1  UNL1        0.2320
     20 C         138.7426  140.8420  161.7522 C.ar    1  UNL1        0.0682
     21 C         137.7376  139.7579  162.0064 C.ar    1  UNL1        0.0103
     22 C         138.1520  138.3183  161.9312 C.ar    1  UNL1        0.0005
     23 C         139.5715  137.9627  161.6017 C.ar    1  UNL1       -0.0006
     24 C         140.5765  139.0467  161.3475 C.ar    1  UNL1        0.0218
     25 C         140.1621  140.4863  161.4227 C.ar    1  UNL1        0.0096
     26 N         137.9138  143.7213  161.9026 N.1     1  UNL1       -0.1908
     27 C         138.3282  142.2816  161.8274 C.1     1  UNL1        0.1004
@<TRIPOS>BOND
     1    26    27    3
     2    27    20    1
     3    20    21   ar
     4    21    22   ar
     5    22    23   ar
     6    23    24   ar
     7    24    19    1
     8    19    18    1
     9    18     1    1
    10     1     2   ar
    11     2     3   ar
    12     3     4   ar
    13     7     4    1
    14     7     8    1
    15     8     9    1
    16     9    10    1
    17    10    13    1
    18    13    14   am
    19    13    15    2
    20    10    11    1
    21     4     5   ar
    22     5     6   ar
    23    24    25   ar
    24    25    20   ar
    25     6     1   ar
    26    11     7    1
    27    14    16    1
    28    14    17    1
    29    11    12    1
@<TRIPOS>MOLECULE
*****
 27 29 0 0 0
SMALL
GASTEIGER

@<TRIPOS>ATOM
      1 C         139.9449  138.1099  164.0127 C.ar    1  UNL1        0.1390
      2 C         138.6561  138.6452  164.5627 C.ar    1  UNL1        0.0366
      3 C         138.6576  139.4487  165.8293 C.ar    1  UNL1        0.0001
      4 C         139.9478  139.7169  166.5459 C.ar    1  UNL1       -0.0078
      5 C         141.2365  139.1816  165.9959 C.ar    1  UNL1        0.0001
      6 C         141.2351  138.3781  164.7293 C.ar    1  UNL1        0.0366
      7 C         139.9492  140.5204  167.8126 C.3     1  UNL1        0.0772
      8 C         139.2416  140.1610  169.0855 C.3     1  UNL1        0.0221
      9 C         139.5135  141.2428  170.0883 C.3     1  UNL1        0.0268
     10 C         140.3891  142.2709  169.4352 C.3     1  UNL1        0.1315
     11 N         140.6583  141.8244  168.0287 N.3     1  UNL1       -0.2890
     12 H         141.6613  141.7000  167.8911 H       1  UNL1        0.1239
     13 C         140.9049  143.5252  170.0761 C.2     1  UNL1        0.2336
     14 N         140.0075  144.7188  170.2177 N.am    1  UNL1       -0.3277
     15 O         142.3180  143.5859  170.5752 O.2     1  UNL1       -0.2739
     16 H         139.0799  144.6789  169.8901 H       1  UNL1        0.1450
     17 H         140.3460  145.5420  170.6383 H       1  UNL1        0.1450
     18 O         139.9435  137.3064  162.7460 O.3     1  UNL1       -0.4706
     19 C         140.1003  137.9934  161.4219 C.3     1  UNL1        0.2320
     20 C         142.5779  140.9965  160.6520 C.ar    1  UNL1        0.0682
     21 C         143.8757  140.2606  160.4966 C.ar    1  UNL1        0.0103
     22 C         143.9150  138.7690  160.6496 C.ar    1  UNL1        0.0005
     23 C         142.6566  138.0132  160.9580 C.ar    1  UNL1       -0.0006
     24 C         141.3589  138.7491  161.1134 C.ar    1  UNL1        0.0218
     25 C         141.3195  140.2408  160.9604 C.ar    1  UNL1        0.0096
     26 N         142.4992  143.9799  160.3460 N.1     1  UNL1       -0.1908
     27 C         142.5386  142.4882  160.4990 C.1     1  UNL1        0.1004
@<TRIPOS>BOND
     1    26    27    3
     2    27    20    1
     3    20    21   ar
     4    21    22   ar
     5    22    23   ar
     6    23    24   ar
     7    24    19    1
     8    19    18    1
     9    18     1    1
    10     1     2   ar
    11     2     3   ar
    12     3     4   ar
    13     7     4    1
    14     7     8    1
    15     8     9    1
    16     9    10    1
    17    10    13    1
    18    13    14   am
    19    13    15    2
    20    10    11    1
    21     4     5   ar
    22     5     6   ar
    23    24    25   ar
    24    25    20   ar
    25     6     1   ar
    26    11     7    1
    27    14    16    1
    28    14    17    1
    29    11    12    1
@<TRIPOS>MOLECULE
*****
 27 29 0 0 0
SMALL
GASTEIGER

@<TRIPOS>ATOM
      1 C         139.5398  138.4928  163.7342 C.ar    1  UNL1        0.1390
      2 C         140.8434  138.5306  164.4751 C.ar    1  UNL1        0.0366
      3 C         140.9391  139.2490  165.7884 C.ar    1  UNL1        0.0001
      4 C         139.7311  139.9296  166.3607 C.ar    1  UNL1       -0.0078
      5 C         138.4275  139.8918  165.6198 C.ar    1  UNL1        0.0001
      6 C         138.3318  139.1734  164.3066 C.ar    1  UNL1        0.0366
      7 C         139.8268  140.6481  167.6741 C.3     1  UNL1        0.0772
      8 C         139.2672  140.1725  168.9820 C.3     1  UNL1        0.0221
      9 C         139.5934  141.1987  170.0263 C.3     1  UNL1        0.0268
     10 C         140.3548  142.3084  169.3638 C.3     1  UNL1        0.1315
     11 N         140.4990  141.9681  167.9100 N.3     1  UNL1       -0.2890
     12 H         141.4873  141.9018  167.6664 H       1  UNL1        0.1239
     13 C         140.8797  143.5419  170.0368 C.2     1  UNL1        0.2336
     14 N         139.9828  144.7279  170.2344 N.am    1  UNL1       -0.3277
     15 O         142.3015  143.5894  170.5123 O.2     1  UNL1       -0.2739
     16 H         139.0496  144.6967  169.9223 H       1  UNL1        0.1450
     17 H         140.3273  145.5374  170.6761 H       1  UNL1        0.1450
     18 O         139.4441  137.7744  162.4209 O.3     1  UNL1       -0.4706
     19 C         139.6522  138.5245  161.1388 C.3     1  UNL1        0.2320
     20 C         140.7775  142.3297  161.2062 C.ar    1  UNL1        0.0682
     21 C         139.4496  143.0198  161.1036 C.ar    1  UNL1        0.0103
     22 C         138.1893  142.2115  161.0127 C.ar    1  UNL1        0.0005
     23 C         138.2568  140.7131  161.0244 C.ar    1  UNL1       -0.0006
     24 C         139.5847  140.0230  161.1270 C.ar    1  UNL1        0.0218
     25 C         140.8450  140.8313  161.2179 C.ar    1  UNL1        0.0096
     26 N         143.2981  143.9462  161.3879 N.1     1  UNL1       -0.1908
     27 C         142.0378  143.1380  161.2970 C.1     1  UNL1        0.1004
@<TRIPOS>BOND
     1    26    27    3
     2    27    20    1
     3    20    21   ar
     4    21    22   ar
     5    22    23   ar
     6    23    24   ar
     7    24    19    1
     8    19    18    1
     9    18     1    1
    10     1     2   ar
    11     2     3   ar
    12     3     4   ar
    13     7     4    1
    14     7     8    1
    15     8     9    1
    16     9    10    1
    17    10    13    1
    18    13    14   am
    19    13    15    2
    20    10    11    1
    21     4     5   ar
    22     5     6   ar
    23    24    25   ar
    24    25    20   ar
    25     6     1   ar
    26    11     7    1
    27    14    16    1
    28    14    17    1
    29    11    12    1
@<TRIPOS>MOLECULE
*****
 27 29 0 0 0
SMALL
GASTEIGER

@<TRIPOS>ATOM
      1 C         144.3390  141.9020  163.9885 C.ar    1  UNL1        0.1390
      2 C         143.8541  142.9459  164.9503 C.ar    1  UNL1        0.0366
      3 C         142.8900  142.5739  166.0376 C.ar    1  UNL1        0.0001
      4 C         142.4109  141.1580  166.1630 C.ar    1  UNL1       -0.0078
      5 C         142.8958  140.1141  165.2012 C.ar    1  UNL1        0.0001
      6 C         143.8598  140.4861  164.1140 C.ar    1  UNL1        0.0366
      7 C         141.4468  140.7861  167.2504 C.3     1  UNL1        0.0772
      8 C         140.0468  140.2846  167.0539 C.3     1  UNL1        0.0221
      9 C         139.4482  140.0389  168.4071 C.3     1  UNL1        0.0268
     10 C         140.4782  140.3886  169.4400 C.3     1  UNL1        0.1315
     11 N         141.7134  140.8503  168.7251 N.3     1  UNL1       -0.2890
     12 H         142.4979  140.2429  168.9618 H       1  UNL1        0.1239
     13 C         140.3037  140.2932  170.9268 C.2     1  UNL1        0.2336
     14 N         139.6682  139.0761  171.5308 N.am    1  UNL1       -0.3277
     15 O         140.7647  141.4148  171.8095 O.2     1  UNL1       -0.2739
     16 H         139.3656  138.3399  170.9514 H       1  UNL1        0.1450
     17 H         139.5536  139.0135  172.5066 H       1  UNL1        0.1450
     18 O         145.3031  142.2739  162.9011 O.3     1  UNL1       -0.4706
     19 C         144.8189  142.4276  161.4898 C.3     1  UNL1        0.2320
     20 C         141.0925  143.7426  161.1227 C.ar    1  UNL1        0.0682
     21 C         140.4042  142.5076  160.6216 C.ar    1  UNL1        0.0103
     22 C         141.1874  141.2460  160.4099 C.ar    1  UNL1        0.0005
     23 C         142.6590  141.2193  160.6993 C.ar    1  UNL1       -0.0006
     24 C         143.3473  142.4542  161.2004 C.ar    1  UNL1        0.0218
     25 C         142.5640  143.7159  161.4121 C.ar    1  UNL1        0.0096
     26 N         139.5260  146.2658  161.5462 N.1     1  UNL1       -0.1908
     27 C         140.3093  145.0042  161.3345 C.1     1  UNL1        0.1004
@<TRIPOS>BOND
     1    26    27    3
     2    27    20    1
     3    20    21   ar
     4    21    22   ar
     5    22    23   ar
     6    23    24   ar
     7    24    19    1
     8    19    18    1
     9    18     1    1
    10     1     2   ar
    11     2     3   ar
    12     3     4   ar
    13     7     4    1
    14     7     8    1
    15     8     9    1
    16     9    10    1
    17    10    13    1
    18    13    14   am
    19    13    15    2
    20    10    11    1
    21     4     5   ar
    22     5     6   ar
    23    24    25   ar
    24    25    20   ar
    25     6     1   ar
    26    11     7    1
    27    14    16    1
    28    14    17    1
    29    11    12    1
