@<TRIPOS>MOLECULE
*****
 41 46 0 0 0
SMALL
GASTEIGER

@<TRIPOS>ATOM
      1 C         137.8058  142.9526  163.1290 C.3     1  UNL1        0.0932
      2 C         138.0012  142.6896  161.6652 C.3     1  UNL1        0.0286
      3 C         138.0326  141.2797  161.1542 C.3     1  UNL1        0.0193
      4 C         137.8687  140.1327  162.1069 C.3     1  UNL1        0.0700
      5 C         137.6733  140.3957  163.5707 C.3     1  UNL1        0.0193
      6 C         137.6418  141.8057  164.0817 C.3     1  UNL1        0.0286
      7 C         137.8445  140.8880  162.4338 C.3     1  UNL1        0.1562
      8 O         137.8160  142.1629  162.8960 O.3     1  UNL1       -0.3572
      9 N         137.9001  138.7229  161.5959 N.3     1  UNL1       -0.2926
     10 H         137.3047  138.6963  160.7681 H       1  UNL1        0.1236
     11 C         139.2061  138.0939  161.2101 C.3     1  UNL1        0.1152
     12 C         140.4141  138.2801  162.0796 C.ar    1  UNL1        0.0765
     13 C         140.5891  137.4404  163.3102 C.ar    1  UNL1        0.0193
     14 C         141.7971  137.6267  164.1797 C.ar    1  UNL1        0.0411
     15 C         142.8301  138.6526  163.8187 C.ar    1  UNL1        0.1708
     16 C         142.6551  139.4923  162.5881 C.ar    1  UNL1        0.1682
     17 N         141.4471  139.3061  161.7186 N.ar    1  UNL1       -0.2304
     18 N         143.6881  140.5183  162.2271 N.am    1  UNL1       -0.2639
     19 C         144.8960  140.7045  163.0966 C.2     1  UNL1        0.2718
     20 O         145.9290  141.7305  162.7356 O.2     1  UNL1       -0.2707
     21 C         145.0711  139.8648  164.3272 C.3     1  UNL1        0.2898
     22 O         144.0381  138.8388  164.6882 O.3     1  UNL1       -0.4628
     23 H         143.5732  141.0694  161.4195 H       1  UNL1        0.1565
     24 C         137.7743  144.3624  163.6401 C.3     1  UNL1        0.0320
     25 C         138.8641  144.8569  164.5445 C.3     1  UNL1        0.0327
     26 C         140.6810  141.8410  167.3468 C.ar    1  UNL1        0.2253
     27 C         142.0936  141.3809  167.1401 C.ar    1  UNL1        0.0593
     28 C         142.9006  141.9261  165.9993 C.ar    1  UNL1        0.0254
     29 C         142.2950  142.9313  165.0651 C.ar    1  UNL1        0.0990
     30 N         143.1020  143.4765  163.9243 N.ar    1  UNL1       -0.2400
     31 C         142.4964  144.4818  162.9902 C.ar    1  UNL1        0.1281
     32 C         141.0837  144.9419  163.1969 C.ar    1  UNL1        0.1566
     33 F         140.4781  145.9472  162.2628 F       1  UNL1       -0.2028
     34 C         140.2767  144.3968  164.3377 C.ar    1  UNL1        0.0261
     35 C         140.8824  143.3914  165.2719 C.ar    1  UNL1        0.1002
     36 N         140.0754  142.8463  166.4127 N.ar    1  UNL1       -0.2104
     37 O         139.8740  141.2958  168.4877 O.3     1  UNL1       -0.4540
     38 C         140.4712  141.2236  169.8617 C.3     1  UNL1        0.2486
     39 O         140.5592  142.1886  172.2723 O.co2   1  UNL1       -0.5454
     40 C         140.3300  142.3831  170.8028 C.2     1  UNL1        0.0940
     41 O         139.9597  143.7372  170.2742 O.co2   1  UNL1       -0.5454
@<TRIPOS>UNITY_ATOM_ATTR
39 1
charge -1
@<TRIPOS>BOND
     1    39    40   ar
     2    40    41   ar
     3    40    38    1
     4    38    37    1
     5    37    26    1
     6    26    27   ar
     7    27    28   ar
     8    28    29   ar
     9    29    30   ar
    10    30    31   ar
    11    31    32   ar
    12    32    33    1
    13    32    34   ar
    14    34    25    1
    15    25    24    1
    16    24     1    1
    17     1     2    1
    18     2     3    1
    19     3     4    1
    20     4     9    1
    21     9    11    1
    22    11    12    1
    23    12    13   ar
    24    13    14   ar
    25    14    15   ar
    26    15    16   ar
    27    16    17   ar
    28    16    18    1
    29    18    19   am
    30    19    20    2
    31    19    21    1
    32    21    22    1
    33     4     5    1
    34     5     6    1
    35     4     7    1
    36     7     8    1
    37    34    35   ar
    38    35    36   ar
    39    36    26   ar
    40    35    29   ar
    41     6     1    1
    42     8     1    1
    43    17    12   ar
    44    22    15    1
    45     9    10    1
    46    18    23    1
@<TRIPOS>MOLECULE
*****
 41 46 0 0 0
SMALL
GASTEIGER

@<TRIPOS>ATOM
      1 C         141.9313  138.0652  164.0841 C.3     1  UNL1        0.0932
      2 C         142.1745  138.3795  162.6377 C.3     1  UNL1        0.0286
      3 C         143.3648  139.2003  162.2385 C.3     1  UNL1        0.0193
      4 C         144.3119  139.7068  163.2856 C.3     1  UNL1        0.0700
      5 C         144.0687  139.3926  164.7320 C.3     1  UNL1        0.0193
      6 C         142.8783  138.5717  165.1312 C.3     1  UNL1        0.0286
      7 C         143.6734  139.2609  163.5528 C.3     1  UNL1        0.1562
      8 O         142.5971  138.5187  163.9138 O.3     1  UNL1       -0.3572
      9 N         145.5022  140.5277  162.8863 N.3     1  UNL1       -0.2926
     10 H         145.5551  140.4938  161.8683 H       1  UNL1        0.1236
     11 C         145.5807  141.9740  163.2761 C.3     1  UNL1        0.1152
     12 C         144.3717  142.8523  163.1468 C.ar    1  UNL1        0.0765
     13 C         143.7020  143.3923  164.3757 C.ar    1  UNL1        0.0193
     14 C         142.4930  144.2706  164.2464 C.ar    1  UNL1        0.0411
     15 C         141.9535  144.6089  162.8883 C.ar    1  UNL1        0.1708
     16 C         142.6230  144.0689  161.6595 C.ar    1  UNL1        0.1682
     17 N         143.8321  143.1906  161.7887 N.ar    1  UNL1       -0.2304
     18 N         142.0835  144.4072  160.3013 N.am    1  UNL1       -0.2639
     19 C         140.8745  145.2855  160.1721 C.2     1  UNL1        0.2718
     20 O         140.3350  145.6238  158.8140 O.2     1  UNL1       -0.2707
     21 C         140.2049  145.8256  161.4009 C.3     1  UNL1        0.2898
     22 O         140.7444  145.4873  162.7591 O.3     1  UNL1       -0.4628
     23 H         142.5230  144.0528  159.4948 H       1  UNL1        0.1565
     24 C         140.7410  137.2444  164.4834 C.3     1  UNL1        0.0320
     25 C         139.4878  137.9205  164.9550 C.3     1  UNL1        0.0327
     26 C         140.1906  141.9160  166.9024 C.ar    1  UNL1        0.2253
     27 C         139.7173  143.1711  166.2311 C.ar    1  UNL1        0.0593
     28 C         139.0098  143.0944  164.9107 C.ar    1  UNL1        0.0254
     29 C         138.7756  141.7626  164.2615 C.ar    1  UNL1        0.0990
     30 N         138.0681  141.6859  162.9411 N.ar    1  UNL1       -0.2400
     31 C         137.8338  140.3541  162.2920 C.ar    1  UNL1        0.1281
     32 C         138.3071  139.0989  162.9633 C.ar    1  UNL1        0.1566
     33 F         138.0728  137.7671  162.3142 F       1  UNL1       -0.2028
     34 C         139.0145  139.1756  164.2837 C.ar    1  UNL1        0.0261
     35 C         139.2488  140.5075  164.9329 C.ar    1  UNL1        0.1002
     36 N         139.9563  140.5842  166.2533 N.ar    1  UNL1       -0.2104
     37 O         140.8980  141.9926  168.2229 O.3     1  UNL1       -0.4540
     38 C         140.1490  141.7145  169.4923 C.3     1  UNL1        0.2486
     39 O         139.9244  144.1539  170.3574 O.co2   1  UNL1       -0.5454
     40 C         140.1927  142.7018  170.6207 C.2     1  UNL1        0.0940
     41 O         140.5047  142.2371  172.0124 O.co2   1  UNL1       -0.5454
@<TRIPOS>UNITY_ATOM_ATTR
39 1
charge -1
@<TRIPOS>BOND
     1    39    40   ar
     2    40    41   ar
     3    40    38    1
     4    38    37    1
     5    37    26    1
     6    26    27   ar
     7    27    28   ar
     8    28    29   ar
     9    29    30   ar
    10    30    31   ar
    11    31    32   ar
    12    32    33    1
    13    32    34   ar
    14    34    25    1
    15    25    24    1
    16    24     1    1
    17     1     2    1
    18     2     3    1
    19     3     4    1
    20     4     9    1
    21     9    11    1
    22    11    12    1
    23    12    13   ar
    24    13    14   ar
    25    14    15   ar
    26    15    16   ar
    27    16    17   ar
    28    16    18    1
    29    18    19   am
    30    19    20    2
    31    19    21    1
    32    21    22    1
    33     4     5    1
    34     5     6    1
    35     4     7    1
    36     7     8    1
    37    34    35   ar
    38    35    36   ar
    39    36    26   ar
    40    35    29   ar
    41     6     1    1
    42     8     1    1
    43    17    12   ar
    44    22    15    1
    45     9    10    1
    46    18    23    1
@<TRIPOS>MOLECULE
*****
 41 46 0 0 0
SMALL
GASTEIGER

@<TRIPOS>ATOM
      1 C         137.8949  143.0470  162.7050 C.3     1  UNL1        0.0932
      2 C         138.2642  142.7325  161.2856 C.3     1  UNL1        0.0286
      3 C         138.2678  141.3102  160.8090 C.3     1  UNL1        0.0193
      4 C         137.9021  140.2024  161.7519 C.3     1  UNL1        0.0700
      5 C         137.5328  140.5169  163.1713 C.3     1  UNL1        0.0193
      6 C         137.5292  141.9392  163.6478 C.3     1  UNL1        0.0286
      7 C         137.8858  140.9662  162.0588 C.3     1  UNL1        0.1562
      8 O         137.8826  142.2523  162.4898 O.3     1  UNL1       -0.3572
      9 N         137.9057  138.7801  161.2754 N.3     1  UNL1       -0.2926
     10 H         137.3496  138.7546  160.4206 H       1  UNL1        0.1236
     11 C         139.2044  138.0955  160.9677 C.3     1  UNL1        0.1152
     12 C         140.3780  138.2659  161.8861 C.ar    1  UNL1        0.0765
     13 C         140.4876  137.4291  163.1262 C.ar    1  UNL1        0.0193
     14 C         141.6613  137.5994  164.0446 C.ar    1  UNL1        0.0411
     15 C         142.7254  138.6066  163.7229 C.ar    1  UNL1        0.1708
     16 C         142.6158  139.4433  162.4829 C.ar    1  UNL1        0.1682
     17 N         141.4421  139.2730  161.5644 N.ar    1  UNL1       -0.2304
     18 N         143.6799  140.4504  162.1612 N.am    1  UNL1       -0.2639
     19 C         144.8535  140.6208  163.0796 C.2     1  UNL1        0.2718
     20 O         145.9176  141.6279  162.7579 O.2     1  UNL1       -0.2707
     21 C         144.9631  139.7840  164.3197 C.3     1  UNL1        0.2898
     22 O         143.8990  138.7769  164.6414 O.3     1  UNL1       -0.4628
     23 H         143.6079  140.9996  161.3473 H       1  UNL1        0.1565
     24 C         137.8913  144.4692  163.1815 C.3     1  UNL1        0.0320
     25 C         138.9073  144.9262  164.1861 C.3     1  UNL1        0.0327
     26 C         140.8006  142.1204  167.1513 C.ar    1  UNL1        0.2253
     27 C         142.2391  141.7246  166.9965 C.ar    1  UNL1        0.0593
     28 C         143.0465  142.2641  165.8532 C.ar    1  UNL1        0.0254
     29 C         142.4154  143.1994  164.8648 C.ar    1  UNL1        0.0990
     30 N         143.2229  143.7389  163.7216 N.ar    1  UNL1       -0.2400
     31 C         142.5918  144.6742  162.7332 C.ar    1  UNL1        0.1281
     32 C         141.1532  145.0700  162.8880 C.ar    1  UNL1        0.1566
     33 F         140.5221  146.0052  161.8996 F       1  UNL1       -0.2028
     34 C         140.3458  144.5305  164.0313 C.ar    1  UNL1        0.0261
     35 C         140.9769  143.5951  165.0197 C.ar    1  UNL1        0.1002
     36 N         140.1695  143.0556  166.1629 N.ar    1  UNL1       -0.2104
     37 O         139.9931  141.5808  168.2945 O.3     1  UNL1       -0.4540
     38 C         139.7661  140.1036  168.4211 C.3     1  UNL1        0.2486
     39 O         139.3064  139.3808  165.9683 O.co2   1  UNL1       -0.5454
     40 C         138.9140  139.3869  167.4161 C.2     1  UNL1        0.0940
     41 O         137.6693  138.6762  167.8588 O.co2   1  UNL1       -0.5454
@<TRIPOS>UNITY_ATOM_ATTR
39 1
charge -1
@<TRIPOS>BOND
     1    39    40   ar
     2    40    41   ar
     3    40    38    1
     4    38    37    1
     5    37    26    1
     6    26    27   ar
     7    27    28   ar
     8    28    29   ar
     9    29    30   ar
    10    30    31   ar
    11    31    32   ar
    12    32    33    1
    13    32    34   ar
    14    34    25    1
    15    25    24    1
    16    24     1    1
    17     1     2    1
    18     2     3    1
    19     3     4    1
    20     4     9    1
    21     9    11    1
    22    11    12    1
    23    12    13   ar
    24    13    14   ar
    25    14    15   ar
    26    15    16   ar
    27    16    17   ar
    28    16    18    1
    29    18    19   am
    30    19    20    2
    31    19    21    1
    32    21    22    1
    33     4     5    1
    34     5     6    1
    35     4     7    1
    36     7     8    1
    37    34    35   ar
    38    35    36   ar
    39    36    26   ar
    40    35    29   ar
    41     6     1    1
    42     8     1    1
    43    17    12   ar
    44    22    15    1
    45     9    10    1
    46    18    23    1
@<TRIPOS>MOLECULE
*****
 41 46 0 0 0
SMALL
GASTEIGER

@<TRIPOS>ATOM
      1 C         142.7040  144.2975  163.1452 C.3     1  UNL1        0.0932
      2 C         142.5046  143.6976  161.7849 C.3     1  UNL1        0.0286
      3 C         141.1195  143.5355  161.2324 C.3     1  UNL1        0.0193
      4 C         139.9338  143.9733  162.0402 C.3     1  UNL1        0.0700
      5 C         140.1332  144.5731  163.4005 C.3     1  UNL1        0.0193
      6 C         141.5183  144.7352  163.9530 C.3     1  UNL1        0.0286
      7 C         140.6735  144.0822  162.3850 C.3     1  UNL1        0.1562
      8 O         141.9259  144.2288  162.8846 O.3     1  UNL1       -0.3572
      9 N         138.5487  143.8111  161.4877 N.3     1  UNL1       -0.2926
     10 H         138.4496  144.4939  160.7365 H       1  UNL1        0.1236
     11 C         138.1136  142.4881  160.9306 C.3     1  UNL1        0.1152
     12 C         138.3108  141.2355  161.7319 C.ar    1  UNL1        0.0765
     13 C         138.8055  139.9874  161.0628 C.ar    1  UNL1        0.0193
     14 C         139.0028  138.7348  161.8641 C.ar    1  UNL1        0.0411
     15 C         138.7054  138.7302  163.3343 C.ar    1  UNL1        0.1708
     16 C         138.2108  139.9783  164.0033 C.ar    1  UNL1        0.1682
     17 N         138.0135  141.2310  163.2021 N.ar    1  UNL1       -0.2304
     18 N         137.9134  139.9737  165.4735 N.am    1  UNL1       -0.2639
     19 C         138.1107  138.7211  166.2747 C.2     1  UNL1        0.2718
     20 O         137.8134  138.7165  167.7450 O.2     1  UNL1       -0.2707
     21 C         138.6054  137.4729  165.6057 C.3     1  UNL1        0.2898
     22 O         138.9027  137.4775  164.1355 O.3     1  UNL1       -0.4628
     23 H         137.5888  140.7929  165.9126 H       1  UNL1        0.1565
     24 C         144.0890  144.4596  163.6977 C.3     1  UNL1        0.0320
     25 C         144.5207  143.6552  164.8879 C.3     1  UNL1        0.0327
     26 C         141.2347  141.9590  167.4521 C.ar    1  UNL1        0.2253
     27 C         140.9961  140.4784  167.4831 C.ar    1  UNL1        0.0593
     28 C         141.8529  139.5632  166.6595 C.ar    1  UNL1        0.0254
     29 C         142.9482  140.1286  165.8048 C.ar    1  UNL1        0.0990
     30 N         143.8049  139.2134  164.9811 N.ar    1  UNL1       -0.2400
     31 C         144.9003  139.7788  164.1264 C.ar    1  UNL1        0.1281
     32 C         145.1389  141.2594  164.0953 C.ar    1  UNL1        0.1566
     33 F         146.2342  141.8248  163.2406 F       1  UNL1       -0.2028
     34 C         144.2821  142.1746  164.9190 C.ar    1  UNL1        0.0261
     35 C         143.1867  141.6092  165.7737 C.ar    1  UNL1        0.1002
     36 N         142.3300  142.5243  166.5974 N.ar    1  UNL1       -0.2104
     37 O         140.3779  142.8741  168.2758 O.3     1  UNL1       -0.4540
     38 C         140.6674  143.0605  169.7357 C.3     1  UNL1        0.2486
     39 O         138.8989  141.2549  170.3376 O.co2   1  UNL1       -0.5454
     40 C         140.0162  142.1670  170.7494 C.2     1  UNL1        0.0940
     41 O         140.4823  142.1858  172.1751 O.co2   1  UNL1       -0.5454
@<TRIPOS>UNITY_ATOM_ATTR
39 1
charge -1
@<TRIPOS>BOND
     1    39    40   ar
     2    40    41   ar
     3    40    38    1
     4    38    37    1
     5    37    26    1
     6    26    27   ar
     7    27    28   ar
     8    28    29   ar
     9    29    30   ar
    10    30    31   ar
    11    31    32   ar
    12    32    33    1
    13    32    34   ar
    14    34    25    1
    15    25    24    1
    16    24     1    1
    17     1     2    1
    18     2     3    1
    19     3     4    1
    20     4     9    1
    21     9    11    1
    22    11    12    1
    23    12    13   ar
    24    13    14   ar
    25    14    15   ar
    26    15    16   ar
    27    16    17   ar
    28    16    18    1
    29    18    19   am
    30    19    20    2
    31    19    21    1
    32    21    22    1
    33     4     5    1
    34     5     6    1
    35     4     7    1
    36     7     8    1
    37    34    35   ar
    38    35    36   ar
    39    36    26   ar
    40    35    29   ar
    41     6     1    1
    42     8     1    1
    43    17    12   ar
    44    22    15    1
    45     9    10    1
    46    18    23    1
@<TRIPOS>MOLECULE
*****
 41 46 0 0 0
SMALL
GASTEIGER

@<TRIPOS>ATOM
      1 C         139.5462  137.7832  164.4309 C.3     1  UNL1        0.0932
      2 C         139.1480  137.9332  162.9925 C.3     1  UNL1        0.0286
      3 C         140.1863  137.8443  161.9137 C.3     1  UNL1        0.0193
      4 C         141.6229  137.6054  162.2731 C.3     1  UNL1        0.0700
      5 C         142.0212  137.4555  163.7115 C.3     1  UNL1        0.0193
      6 C         140.9828  137.5444  164.7904 C.3     1  UNL1        0.0286
      7 C         141.0897  137.6466  162.8991 C.3     1  UNL1        0.1562
      8 O         140.1508  137.7270  163.8747 O.3     1  UNL1       -0.3572
      9 N         142.6612  137.5166  161.1943 N.3     1  UNL1       -0.2926
     10 H         142.1724  137.6246  160.3056 H       1  UNL1        0.1236
     11 C         143.8094  138.4816  161.1770 C.3     1  UNL1        0.1152
     12 C         143.6019  139.9020  161.6122 C.ar    1  UNL1        0.0765
     13 C         142.6868  140.7993  160.8326 C.ar    1  UNL1        0.0193
     14 C         142.4793  142.2196  161.2679 C.ar    1  UNL1        0.0411
     15 C         143.1869  142.7428  162.4826 C.ar    1  UNL1        0.1708
     16 C         144.1019  141.8457  163.2622 C.ar    1  UNL1        0.1682
     17 N         144.3094  140.4252  162.8270 N.ar    1  UNL1       -0.2304
     18 N         144.8094  142.3689  164.4769 N.am    1  UNL1       -0.2639
     19 C         144.6020  143.7892  164.9121 C.2     1  UNL1        0.2718
     20 O         145.3095  144.3124  166.1269 O.2     1  UNL1       -0.2707
     21 C         143.6869  144.6865  164.1326 C.3     1  UNL1        0.2898
     22 O         142.9793  144.1633  162.9178 O.3     1  UNL1       -0.4628
     23 H         145.4100  141.7800  164.9886 H       1  UNL1        0.1565
     24 C         138.5080  137.8721  165.5098 C.3     1  UNL1        0.0320
     25 C         138.1264  139.2081  166.0753 C.3     1  UNL1        0.0327
     26 C         141.8330  140.4688  168.2939 C.ar    1  UNL1        0.2253
     27 C         142.5764  141.7015  167.8726 C.ar    1  UNL1        0.0593
     28 C         142.0843  142.5141  166.7117 C.ar    1  UNL1        0.0254
     29 C         140.8488  142.0939  165.9722 C.ar    1  UNL1        0.0990
     30 N         140.3567  142.9065  164.8113 N.ar    1  UNL1       -0.2400
     31 C         139.1212  142.4863  164.0718 C.ar    1  UNL1        0.1281
     32 C         138.3777  141.2534  164.4931 C.ar    1  UNL1        0.1566
     33 F         137.1423  140.8332  163.7536 F       1  UNL1       -0.2028
     34 C         138.8698  140.4409  165.6540 C.ar    1  UNL1        0.0261
     35 C         140.1054  140.8611  166.3935 C.ar    1  UNL1        0.1002
     36 N         140.5975  140.0486  167.5544 N.ar    1  UNL1       -0.2104
     37 O         142.3251  139.6562  169.4547 O.3     1  UNL1       -0.4540
     38 C         142.0685  140.1206  170.8577 C.3     1  UNL1        0.2486
     39 O         139.4849  139.8733  170.9760 O.co2   1  UNL1       -0.5454
     40 C         140.7260  140.6765  171.2300 C.2     1  UNL1        0.0940
     41 O         140.6245  142.0358  171.8564 O.co2   1  UNL1       -0.5454
@<TRIPOS>UNITY_ATOM_ATTR
39 1
charge -1
@<TRIPOS>BOND
     1    39    40   ar
     2    40    41   ar
     3    40    38    1
     4    38    37    1
     5    37    26    1
     6    26    27   ar
     7    27    28   ar
     8    28    29   ar
     9    29    30   ar
    10    30    31   ar
    11    31    32   ar
    12    32    33    1
    13    32    34   ar
    14    34    25    1
    15    25    24    1
    16    24     1    1
    17     1     2    1
    18     2     3    1
    19     3     4    1
    20     4     9    1
    21     9    11    1
    22    11    12    1
    23    12    13   ar
    24    13    14   ar
    25    14    15   ar
    26    15    16   ar
    27    16    17   ar
    28    16    18    1
    29    18    19   am
    30    19    20    2
    31    19    21    1
    32    21    22    1
    33     4     5    1
    34     5     6    1
    35     4     7    1
    36     7     8    1
    37    34    35   ar
    38    35    36   ar
    39    36    26   ar
    40    35    29   ar
    41     6     1    1
    42     8     1    1
    43    17    12   ar
    44    22    15    1
    45     9    10    1
    46    18    23    1
@<TRIPOS>MOLECULE
*****
 41 46 0 0 0
SMALL
GASTEIGER

@<TRIPOS>ATOM
      1 C         138.4688  139.4940  164.0936 C.3     1  UNL1        0.0932
      2 C         138.3075  140.6358  165.0529 C.3     1  UNL1        0.0286
      3 C         137.9511  142.0002  164.5418 C.3     1  UNL1        0.0193
      4 C         137.7560  142.2229  163.0712 C.3     1  UNL1        0.0700
      5 C         137.9173  141.0811  162.1119 C.3     1  UNL1        0.0193
      6 C         138.2737  139.7167  162.6231 C.3     1  UNL1        0.0286
      7 C         137.9506  141.4575  163.3041 C.3     1  UNL1        0.1562
      8 O         138.2729  140.2237  163.7663 O.3     1  UNL1       -0.3572
      9 N         137.3995  143.5873  162.5601 N.3     1  UNL1       -0.2926
     10 H         136.5507  143.8723  163.0487 H       1  UNL1        0.1236
     11 C         138.3767  144.7174  162.6945 C.3     1  UNL1        0.1152
     12 C         139.8501  144.4487  162.6124 C.ar    1  UNL1        0.0765
     13 C         140.7624  144.9318  163.7007 C.ar    1  UNL1        0.0193
     14 C         142.2358  144.6630  163.6187 C.ar    1  UNL1        0.0411
     15 C         142.7970  143.9112  162.4483 C.ar    1  UNL1        0.1708
     16 C         141.8848  143.4282  161.3599 C.ar    1  UNL1        0.1682
     17 N         140.4113  143.6969  161.4420 N.ar    1  UNL1       -0.2304
     18 N         142.4460  142.6764  160.1895 N.am    1  UNL1       -0.2639
     19 C         143.9194  142.4076  160.1075 C.2     1  UNL1        0.2718
     20 O         144.4806  141.6558  158.9371 O.2     1  UNL1       -0.2707
     21 C         144.8317  142.8907  161.1958 C.3     1  UNL1        0.2898
     22 O         144.2705  143.6425  162.3662 O.3     1  UNL1       -0.4628
     23 H         141.8473  142.3593  159.4752 H       1  UNL1        0.1565
     24 C         138.8253  138.1296  164.6047 C.3     1  UNL1        0.0320
     25 C         140.2574  137.7857  164.8891 C.3     1  UNL1        0.0327
     26 C         142.0330  141.1143  167.3422 C.ar    1  UNL1        0.2253
     27 C         143.1343  141.9594  166.7741 C.ar    1  UNL1        0.0593
     28 C         143.6438  141.6950  165.3883 C.ar    1  UNL1        0.0254
     29 C         143.0520  140.5855  164.5706 C.ar    1  UNL1        0.0990
     30 N         143.5615  140.3211  163.1847 N.ar    1  UNL1       -0.2400
     31 C         142.9696  139.2117  162.3670 C.ar    1  UNL1        0.1281
     32 C         141.8682  138.3665  162.9352 C.ar    1  UNL1        0.1566
     33 F         141.2764  137.2570  162.1174 F       1  UNL1       -0.2028
     34 C         141.3587  138.6308  164.3210 C.ar    1  UNL1        0.0261
     35 C         141.9506  139.7404  165.1387 C.ar    1  UNL1        0.1002
     36 N         141.4412  140.0048  166.5245 N.ar    1  UNL1       -0.2104
     37 O         141.5235  141.3787  168.7281 O.3     1  UNL1       -0.4540
     38 C         141.2826  140.2359  169.6693 C.3     1  UNL1        0.2486
     39 O         140.6855  141.5296  171.8418 O.co2   1  UNL1       -0.5454
     40 C         140.4009  140.4247  170.8681 C.2     1  UNL1        0.0940
     41 O         139.2347  139.5085  171.0931 O.co2   1  UNL1       -0.5454
@<TRIPOS>UNITY_ATOM_ATTR
39 1
charge -1
@<TRIPOS>BOND
     1    39    40   ar
     2    40    41   ar
     3    40    38    1
     4    38    37    1
     5    37    26    1
     6    26    27   ar
     7    27    28   ar
     8    28    29   ar
     9    29    30   ar
    10    30    31   ar
    11    31    32   ar
    12    32    33    1
    13    32    34   ar
    14    34    25    1
    15    25    24    1
    16    24     1    1
    17     1     2    1
    18     2     3    1
    19     3     4    1
    20     4     9    1
    21     9    11    1
    22    11    12    1
    23    12    13   ar
    24    13    14   ar
    25    14    15   ar
    26    15    16   ar
    27    16    17   ar
    28    16    18    1
    29    18    19   am
    30    19    20    2
    31    19    21    1
    32    21    22    1
    33     4     5    1
    34     5     6    1
    35     4     7    1
    36     7     8    1
    37    34    35   ar
    38    35    36   ar
    39    36    26   ar
    40    35    29   ar
    41     6     1    1
    42     8     1    1
    43    17    12   ar
    44    22    15    1
    45     9    10    1
    46    18    23    1
@<TRIPOS>MOLECULE
*****
 41 46 0 0 0
SMALL
GASTEIGER

@<TRIPOS>ATOM
      1 C         141.9644  137.9310  164.6101 C.3     1  UNL1        0.0932
      2 C         140.5130  137.7533  164.9445 C.3     1  UNL1        0.0286
      3 C         139.4858  137.7552  163.8514 C.3     1  UNL1        0.0193
      4 C         139.9100  137.9348  162.4239 C.3     1  UNL1        0.0700
      5 C         141.3614  138.1125  162.0894 C.3     1  UNL1        0.0193
      6 C         142.3886  138.1106  163.1826 C.3     1  UNL1        0.0286
      7 C         140.5092  137.9407  162.9885 C.3     1  UNL1        0.1562
      8 O         141.4380  137.9390  163.9769 O.3     1  UNL1       -0.3572
      9 N         138.8828  137.9368  161.3308 N.3     1  UNL1       -0.2926
     10 H         138.4472  137.0145  161.3344 H       1  UNL1        0.1236
     11 C         137.7693  138.9416  161.3498 C.3     1  UNL1        0.1152
     12 C         138.0778  140.3999  161.5180 C.ar    1  UNL1        0.0765
     13 C         137.3767  141.1974  162.5775 C.ar    1  UNL1        0.0193
     14 C         137.6851  142.6557  162.7457 C.ar    1  UNL1        0.0411
     15 C         138.6947  143.3164  161.8545 C.ar    1  UNL1        0.1708
     16 C         139.3958  142.5189  160.7951 C.ar    1  UNL1        0.1682
     17 N         139.0873  141.0606  160.6268 N.ar    1  UNL1       -0.2304
     18 N         140.4054  143.1796  159.9039 N.am    1  UNL1       -0.2639
     19 C         140.7138  144.6379  160.0722 C.2     1  UNL1        0.2718
     20 O         141.7234  145.2986  159.1810 O.2     1  UNL1       -0.2707
     21 C         140.0127  145.4355  161.1316 C.3     1  UNL1        0.2898
     22 O         139.0032  144.7747  162.0228 O.3     1  UNL1       -0.4628
     23 H         140.8655  142.6562  159.2086 H       1  UNL1        0.1565
     24 C         142.9916  137.9290  165.7031 C.3     1  UNL1        0.0320
     25 C         143.3994  139.2188  166.3514 C.3     1  UNL1        0.0327
     26 C         141.6098  142.7432  164.2006 C.ar    1  UNL1        0.2253
     27 C         140.5829  143.5965  164.8841 C.ar    1  UNL1        0.0593
     28 C         140.1526  143.2751  166.2847 C.ar    1  UNL1        0.0254
     29 C         140.7491  142.1003  167.0016 C.ar    1  UNL1        0.0990
     30 N         140.3187  141.7789  168.4021 N.ar    1  UNL1       -0.2400
     31 C         140.9152  140.6042  169.1191 C.ar    1  UNL1        0.1281
     32 C         141.9421  139.7507  168.4355 C.ar    1  UNL1        0.1566
     33 F         142.5386  138.5760  169.1525 F       1  UNL1       -0.2028
     34 C         142.3725  140.0722  167.0350 C.ar    1  UNL1        0.0261
     35 C         141.7759  141.2470  166.3181 C.ar    1  UNL1        0.1002
     36 N         142.2063  141.5684  164.9175 N.ar    1  UNL1       -0.2104
     37 O         142.0402  143.0646  162.8000 O.3     1  UNL1       -0.4540
     38 C         143.3705  143.7124  162.5542 C.3     1  UNL1        0.2486
     39 O         145.0089  142.5941  160.8764 O.co2   1  UNL1       -0.5454
     40 C         144.5794  142.8653  162.2877 C.2     1  UNL1        0.0940
     41 O         145.3588  142.2893  163.4327 O.co2   1  UNL1       -0.5454
@<TRIPOS>UNITY_ATOM_ATTR
39 1
charge -1
@<TRIPOS>BOND
     1    39    40   ar
     2    40    41   ar
     3    40    38    1
     4    38    37    1
     5    37    26    1
     6    26    27   ar
     7    27    28   ar
     8    28    29   ar
     9    29    30   ar
    10    30    31   ar
    11    31    32   ar
    12    32    33    1
    13    32    34   ar
    14    34    25    1
    15    25    24    1
    16    24     1    1
    17     1     2    1
    18     2     3    1
    19     3     4    1
    20     4     9    1
    21     9    11    1
    22    11    12    1
    23    12    13   ar
    24    13    14   ar
    25    14    15   ar
    26    15    16   ar
    27    16    17   ar
    28    16    18    1
    29    18    19   am
    30    19    20    2
    31    19    21    1
    32    21    22    1
    33     4     5    1
    34     5     6    1
    35     4     7    1
    36     7     8    1
    37    34    35   ar
    38    35    36   ar
    39    36    26   ar
    40    35    29   ar
    41     6     1    1
    42     8     1    1
    43    17    12   ar
    44    22    15    1
    45     9    10    1
    46    18    23    1
@<TRIPOS>MOLECULE
*****
 41 46 0 0 0
SMALL
GASTEIGER

@<TRIPOS>ATOM
      1 C         144.8867  141.5744  163.7990 C.3     1  UNL1        0.0932
      2 C         144.5269  142.5482  164.8817 C.3     1  UNL1        0.0286
      3 C         143.8358  143.8336  164.5351 C.3     1  UNL1        0.0193
      4 C         143.5045  144.1452  163.1056 C.3     1  UNL1        0.0700
      5 C         143.8643  143.1714  162.0229 C.3     1  UNL1        0.0193
      6 C         144.5554  141.8860  162.3696 C.3     1  UNL1        0.0286
      7 C         143.8837  143.4281  163.2468 C.3     1  UNL1        0.1562
      8 O         144.5086  142.2658  163.5602 O.3     1  UNL1       -0.3572
      9 N         142.8135  145.4306  162.7590 N.3     1  UNL1       -0.2926
     10 H         142.9183  145.5591  161.7526 H       1  UNL1        0.1236
     11 C         141.3562  145.6058  163.0685 C.3     1  UNL1        0.1152
     12 C         140.4420  144.4167  163.0721 C.ar    1  UNL1        0.0765
     13 C         139.7588  143.9997  164.3408 C.ar    1  UNL1        0.0193
     14 C         138.8445  142.8106  164.3444 C.ar    1  UNL1        0.0411
     15 C         138.6135  142.0383  163.0794 C.ar    1  UNL1        0.1708
     16 C         139.2967  142.4552  161.8108 C.ar    1  UNL1        0.1682
     17 N         140.2109  143.6444  161.8071 N.ar    1  UNL1       -0.2304
     18 N         139.0656  141.6829  160.5458 N.am    1  UNL1       -0.2639
     19 C         138.1514  140.4937  160.5494 C.2     1  UNL1        0.2718
     20 O         137.9203  139.7214  159.2844 O.2     1  UNL1       -0.2707
     21 C         137.4681  140.0768  161.8181 C.3     1  UNL1        0.2898
     22 O         137.6992  140.8491  163.0831 O.3     1  UNL1       -0.4628
     23 H         139.5140  141.9565  159.7132 H       1  UNL1        0.1565
     24 C         145.5777  140.2890  164.1457 C.3     1  UNL1        0.0320
     25 C         144.7952  139.1508  164.7306 C.3     1  UNL1        0.0327
     26 C         141.5446  140.2865  167.6278 C.ar    1  UNL1        0.2253
     27 C         140.1050  140.0951  167.2526 C.ar    1  UNL1        0.0593
     28 C         139.7489  139.5250  165.9116 C.ar    1  UNL1        0.0254
     29 C         140.8324  139.1464  164.9459 C.ar    1  UNL1        0.0990
     30 N         140.4763  138.5764  163.6049 N.ar    1  UNL1       -0.2400
     31 C         141.5598  138.1978  162.6391 C.ar    1  UNL1        0.1281
     32 C         142.9995  138.3893  163.0144 C.ar    1  UNL1        0.1566
     33 F         144.0830  138.0107  162.0486 F       1  UNL1       -0.2028
     34 C         143.3556  138.9593  164.3553 C.ar    1  UNL1        0.0261
     35 C         142.2720  139.3379  165.3211 C.ar    1  UNL1        0.1002
     36 N         142.6281  139.9080  166.6621 N.ar    1  UNL1       -0.2104
     37 O         141.9007  140.8566  168.9688 O.3     1  UNL1       -0.4540
     38 C         140.8978  140.8335  170.0839 C.3     1  UNL1        0.2486
     39 O         139.9543  143.2321  169.7572 O.co2   1  UNL1       -0.5454
     40 C         140.3921  142.1208  170.6646 C.2     1  UNL1        0.0940
     41 O         140.3243  142.2968  172.1527 O.co2   1  UNL1       -0.5454
@<TRIPOS>UNITY_ATOM_ATTR
39 1
charge -1
@<TRIPOS>BOND
     1    39    40   ar
     2    40    41   ar
     3    40    38    1
     4    38    37    1
     5    37    26    1
     6    26    27   ar
     7    27    28   ar
     8    28    29   ar
     9    29    30   ar
    10    30    31   ar
    11    31    32   ar
    12    32    33    1
    13    32    34   ar
    14    34    25    1
    15    25    24    1
    16    24     1    1
    17     1     2    1
    18     2     3    1
    19     3     4    1
    20     4     9    1
    21     9    11    1
    22    11    12    1
    23    12    13   ar
    24    13    14   ar
    25    14    15   ar
    26    15    16   ar
    27    16    17   ar
    28    16    18    1
    29    18    19   am
    30    19    20    2
    31    19    21    1
    32    21    22    1
    33     4     5    1
    34     5     6    1
    35     4     7    1
    36     7     8    1
    37    34    35   ar
    38    35    36   ar
    39    36    26   ar
    40    35    29   ar
    41     6     1    1
    42     8     1    1
    43    17    12   ar
    44    22    15    1
    45     9    10    1
    46    18    23    1
@<TRIPOS>MOLECULE
*****
 41 46 0 0 0
SMALL
GASTEIGER

@<TRIPOS>ATOM
      1 C         137.6762  142.2620  164.0199 C.3     1  UNL1        0.0932
      2 C         137.4183  142.0057  162.5646 C.3     1  UNL1        0.0286
      3 C         137.7021  140.6542  161.9792 C.3     1  UNL1        0.0193
      4 C         138.2439  139.5588  162.8491 C.3     1  UNL1        0.0700
      5 C         138.5018  139.8150  164.3044 C.3     1  UNL1        0.0193
      6 C         138.2180  141.1667  164.8897 C.3     1  UNL1        0.0286
      7 C         138.1039  140.2830  163.2150 C.3     1  UNL1        0.1562
      8 O         137.8473  141.5051  163.7443 O.3     1  UNL1       -0.3572
      9 N         138.5277  138.2072  162.2637 N.3     1  UNL1       -0.2926
     10 H         137.6355  137.8330  161.9408 H       1  UNL1        0.1236
     11 C         139.4925  138.0714  161.1232 C.3     1  UNL1        0.1152
     12 C         140.5204  139.1363  160.8795 C.ar    1  UNL1        0.0765
     13 C         140.3655  140.0773  159.7217 C.ar    1  UNL1        0.0193
     14 C         141.3934  141.1422  159.4780 C.ar    1  UNL1        0.0411
     15 C         142.5762  141.2661  160.3921 C.ar    1  UNL1        0.1708
     16 C         142.7311  140.3252  161.5499 C.ar    1  UNL1        0.1682
     17 N         141.7032  139.2602  161.7937 N.ar    1  UNL1       -0.2304
     18 N         143.9139  140.4491  162.4641 N.am    1  UNL1       -0.2639
     19 C         144.9418  141.5140  162.2204 C.2     1  UNL1        0.2718
     20 O         146.1246  141.6379  163.1345 O.2     1  UNL1       -0.2707
     21 C         144.7869  142.4550  161.0625 C.3     1  UNL1        0.2898
     22 O         143.6041  142.3311  160.1484 O.3     1  UNL1       -0.4628
     23 H         144.0155  139.8315  163.2240 H       1  UNL1        0.1565
     24 C         137.3924  143.6135  164.6052 C.3     1  UNL1        0.0320
     25 C         138.5250  144.4936  165.0444 C.3     1  UNL1        0.0327
     26 C         141.7695  142.2755  167.2361 C.ar    1  UNL1        0.2253
     27 C         143.1249  142.1205  166.6126 C.ar    1  UNL1        0.0593
     28 C         143.3989  142.7049  165.2585 C.ar    1  UNL1        0.0254
     29 C         142.3174  143.4443  164.5280 C.ar    1  UNL1        0.0990
     30 N         142.5914  144.0287  163.1739 N.ar    1  UNL1       -0.2400
     31 C         141.5099  144.7680  162.4434 C.ar    1  UNL1        0.1281
     32 C         140.1544  144.9230  163.0668 C.ar    1  UNL1        0.1566
     33 F         139.0730  145.6624  162.3363 F       1  UNL1       -0.2028
     34 C         139.8805  144.3386  164.4209 C.ar    1  UNL1        0.0261
     35 C         140.9620  143.5992  165.1514 C.ar    1  UNL1        0.1002
     36 N         140.6880  143.0148  166.5055 N.ar    1  UNL1       -0.2104
     37 O         141.4955  141.6911  168.5901 O.3     1  UNL1       -0.4540
     38 C         141.5188  142.5703  169.8051 C.3     1  UNL1        0.2486
     39 O         140.1152  144.7191  170.2085 O.co2   1  UNL1       -0.5454
     40 C         140.2567  143.2275  170.2796 C.2     1  UNL1        0.0940
     41 O         139.1360  142.3930  170.8253 O.co2   1  UNL1       -0.5454
@<TRIPOS>UNITY_ATOM_ATTR
39 1
charge -1
@<TRIPOS>BOND
     1    39    40   ar
     2    40    41   ar
     3    40    38    1
     4    38    37    1
     5    37    26    1
     6    26    27   ar
     7    27    28   ar
     8    28    29   ar
     9    29    30   ar
    10    30    31   ar
    11    31    32   ar
    12    32    33    1
    13    32    34   ar
    14    34    25    1
    15    25    24    1
    16    24     1    1
    17     1     2    1
    18     2     3    1
    19     3     4    1
    20     4     9    1
    21     9    11    1
    22    11    12    1
    23    12    13   ar
    24    13    14   ar
    25    14    15   ar
    26    15    16   ar
    27    16    17   ar
    28    16    18    1
    29    18    19   am
    30    19    20    2
    31    19    21    1
    32    21    22    1
    33     4     5    1
    34     5     6    1
    35     4     7    1
    36     7     8    1
    37    34    35   ar
    38    35    36   ar
    39    36    26   ar
    40    35    29   ar
    41     6     1    1
    42     8     1    1
    43    17    12   ar
    44    22    15    1
    45     9    10    1
    46    18    23    1
