@<TRIPOS>MOLECULE
*****
 31 34 0 0 0
SMALL
GASTEIGER

@<TRIPOS>ATOM
      1 C         142.0167  142.3022  166.1021 C.2     1  UNL1        0.1078
      2 N         143.4932  142.5139  166.2604 N.2     1  UNL1       -0.1481
      3 N         143.9578  143.3957  165.1395 N.2     1  UNL1       -0.1516
      4 C         142.7685  143.7290  164.2884 C.2     1  UNL1        0.0979
      5 C         142.6229  144.5606  163.0486 C.3     1  UNL1        0.1651
      6 C         141.2776  144.7164  162.4037 C.2     1  UNL1        0.3110
      7 N         140.0779  144.0406  162.9987 N.2     1  UNL1       -0.0399
      8 C         140.2235  143.2090  164.2385 C.2     1  UNL1        0.2380
      9 C         141.5687  143.0532  164.8834 C.2     1  UNL1        0.0820
     10 C         138.1638  138.8738  166.7353 C.3     1  UNL1        0.0521
     11 C         139.2152  139.7691  167.3208 C.ar    1  UNL1        0.0590
     12 C         140.0902  140.5880  166.4187 C.ar    1  UNL1        0.0163
     13 C         141.1416  141.4833  167.0042 C.ar    1  UNL1        0.0219
     14 C         141.3180  141.5598  168.4919 C.ar    1  UNL1        0.0163
     15 C         140.4430  140.7409  169.3940 C.ar    1  UNL1        0.0590
     16 C         140.6194  140.8174  170.8816 C.3     1  UNL1        0.0521
     17 N         139.3916  139.8456  168.8084 N.ar    1  UNL1       -0.2540
     18 N         141.1320  145.5481  161.1638 N.am    1  UNL1       -0.1565
     19 C         141.1064  144.8883  159.8170 C.2     1  UNL1        0.3925
     20 O         141.2264  143.3969  159.7100 O.2     1  UNL1       -0.2238
     21 N         140.9608  145.7198  158.5771 N.am    1  UNL1       -0.2666
     22 H         141.0533  146.5269  161.2340 H       1  UNL1        0.3027
     23 H         140.8821  146.6987  158.6473 H       1  UNL1        0.1533
     24 C         140.9352  145.0601  157.2302 C.3     1  UNL1        0.0977
     25 C         142.2198  144.7764  156.5095 C.3     1  UNL1        0.0263
     26 C         139.6251  144.6839  156.6041 C.ar    1  UNL1       -0.0044
     27 C         138.9595  143.3921  156.9760 C.ar    1  UNL1       -0.0027
     28 C         137.6494  143.0159  156.3499 C.ar    1  UNL1       -0.0003
     29 C         137.0048  143.9316  155.3519 C.ar    1  UNL1       -0.0000
     30 C         137.6703  145.2233  154.9799 C.ar    1  UNL1       -0.0003
     31 C         138.9805  145.5995  155.6061 C.ar    1  UNL1       -0.0027
@<TRIPOS>BOND
     1    10    11    1
     2    11    12   ar
     3    12    13   ar
     4    13     1    1
     5     1     2    2
     6     2     3    1
     7     3     4    2
     8     4     5    1
     9     5     6    1
    10     6    18    1
    11    18    19   am
    12    19    20    2
    13    19    21   am
    14    21    24    1
    15    24    25    1
    16    24    26    1
    17    26    27   ar
    18    27    28   ar
    19    28    29   ar
    20    29    30   ar
    21    30    31   ar
    22     6     7    2
    23     7     8    1
    24     8     9    2
    25    13    14   ar
    26    14    15   ar
    27    15    16    1
    28    15    17   ar
    29    17    11   ar
    30     9     1    1
    31     9     4    1
    32    31    26   ar
    33    18    22    1
    34    21    23    1
@<TRIPOS>MOLECULE
*****
 31 34 0 0 0
SMALL
GASTEIGER

@<TRIPOS>ATOM
      1 C         138.6506  141.4465  162.9266 C.2     1  UNL1        0.1078
      2 N         138.1891  142.7844  162.4295 N.2     1  UNL1       -0.1481
      3 N         138.1126  142.7216  160.9328 N.2     1  UNL1       -0.1516
      4 C         138.5268  141.3449  160.5049 C.2     1  UNL1        0.0979
      5 C         138.6442  140.7070  159.1524 C.3     1  UNL1        0.1651
      6 C         139.0940  139.2811  159.0321 C.2     1  UNL1        0.3110
      7 N         139.4265  138.4931  160.2644 N.2     1  UNL1       -0.0399
      8 C         139.3091  139.1310  161.6169 C.2     1  UNL1        0.2380
      9 C         138.8593  140.5568  161.7371 C.2     1  UNL1        0.0820
     10 C         140.9258  142.3049  167.5186 C.3     1  UNL1        0.0521
     11 C         140.0032  141.4944  166.6573 C.ar    1  UNL1        0.0590
     12 C         139.7882  141.8757  165.2226 C.ar    1  UNL1        0.0163
     13 C         138.8656  141.0653  164.3613 C.ar    1  UNL1        0.0219
     14 C         138.1578  139.8734  164.9348 C.ar    1  UNL1        0.0163
     15 C         138.3728  139.4921  166.3695 C.ar    1  UNL1        0.0590
     16 C         137.6651  138.3003  166.9429 C.3     1  UNL1        0.0521
     17 N         139.2955  140.3026  167.2308 N.ar    1  UNL1       -0.2540
     18 N         139.2114  138.6432  157.6795 N.am    1  UNL1       -0.1565
     19 C         140.5039  138.0084  157.2593 C.2     1  UNL1        0.3925
     20 O         141.6790  138.0116  158.1917 O.2     1  UNL1       -0.2238
     21 N         140.6213  137.3705  155.9069 N.am    1  UNL1       -0.2666
     22 H         138.4401  138.6412  157.0676 H       1  UNL1        0.3027
     23 H         139.8501  137.3685  155.2950 H       1  UNL1        0.1533
     24 C         141.9138  136.7358  155.4867 C.3     1  UNL1        0.0977
     25 C         142.8963  137.5113  154.6600 C.3     1  UNL1        0.0263
     26 C         142.2237  135.3256  155.8930 C.ar    1  UNL1       -0.0044
     27 C         143.2588  135.0585  156.9454 C.ar    1  UNL1       -0.0027
     28 C         143.5687  133.6483  157.3517 C.ar    1  UNL1       -0.0003
     29 C         142.8437  132.5051  156.7058 C.ar    1  UNL1       -0.0000
     30 C         141.8086  132.7720  155.6535 C.ar    1  UNL1       -0.0003
     31 C         141.4986  134.1823  155.2471 C.ar    1  UNL1       -0.0027
@<TRIPOS>BOND
     1    10    11    1
     2    11    12   ar
     3    12    13   ar
     4    13     1    1
     5     1     2    2
     6     2     3    1
     7     3     4    2
     8     4     5    1
     9     5     6    1
    10     6    18    1
    11    18    19   am
    12    19    20    2
    13    19    21   am
    14    21    24    1
    15    24    25    1
    16    24    26    1
    17    26    27   ar
    18    27    28   ar
    19    28    29   ar
    20    29    30   ar
    21    30    31   ar
    22     6     7    2
    23     7     8    1
    24     8     9    2
    25    13    14   ar
    26    14    15   ar
    27    15    16    1
    28    15    17   ar
    29    17    11   ar
    30     9     1    1
    31     9     4    1
    32    31    26   ar
    33    18    22    1
    34    21    23    1
@<TRIPOS>MOLECULE
*****
 31 34 0 0 0
SMALL
GASTEIGER

@<TRIPOS>ATOM
      1 C         139.7481  140.9464  164.3713 C.2     1  UNL1        0.1078
      2 N         139.3195  142.2549  163.7762 N.2     1  UNL1       -0.1481
      3 N         139.9133  142.3559  162.4024 N.2     1  UNL1       -0.1516
      4 C         140.7089  141.1099  162.1485 C.2     1  UNL1        0.0979
      5 C         141.5132  140.6561  160.9665 C.3     1  UNL1        0.1651
      6 C         142.2153  139.3311  161.0013 C.2     1  UNL1        0.3110
      7 N         142.1132  138.4599  162.2182 N.2     1  UNL1       -0.0399
      8 C         141.3090  138.9138  163.4002 C.2     1  UNL1        0.2380
      9 C         140.6069  140.2388  163.3653 C.2     1  UNL1        0.0820
     10 C         140.2838  141.1207  169.5368 C.3     1  UNL1        0.0521
     11 C         139.6501  140.5224  168.3160 C.ar    1  UNL1        0.0590
     12 C         140.0160  141.0335  166.9540 C.ar    1  UNL1        0.0163
     13 C         139.3823  140.4353  165.7332 C.ar    1  UNL1        0.0219
     14 C         138.3827  139.3257  165.8743 C.ar    1  UNL1        0.0163
     15 C         138.0169  138.8145  167.2363 C.ar    1  UNL1        0.0590
     16 C         137.0174  137.7051  167.3773 C.3     1  UNL1        0.0521
     17 N         138.6506  139.4129  168.4571 N.ar    1  UNL1       -0.2540
     18 N         143.0196  138.8771  159.8193 N.am    1  UNL1       -0.1565
     19 C         142.3376  138.2211  158.6554 C.2     1  UNL1        0.3925
     20 O         140.8513  138.0190  158.6736 O.2     1  UNL1       -0.2238
     21 N         143.1418  137.7672  157.4734 N.am    1  UNL1       -0.2666
     22 H         143.9950  139.0098  159.8074 H       1  UNL1        0.3027
     23 H         144.1173  137.8998  157.4615 H       1  UNL1        0.1533
     24 C         142.4598  137.1112  156.3096 C.3     1  UNL1        0.0977
     25 C         141.8365  137.9514  155.2346 C.3     1  UNL1        0.0263
     26 C         142.4012  135.6150  156.2207 C.ar    1  UNL1       -0.0044
     27 C         143.2168  134.7753  157.1587 C.ar    1  UNL1       -0.0027
     28 C         143.1581  133.2791  157.0698 C.ar    1  UNL1       -0.0003
     29 C         142.2839  132.6225  156.0429 C.ar    1  UNL1       -0.0000
     30 C         141.4684  133.4621  155.1049 C.ar    1  UNL1       -0.0003
     31 C         141.5270  134.9584  155.1937 C.ar    1  UNL1       -0.0027
@<TRIPOS>BOND
     1    10    11    1
     2    11    12   ar
     3    12    13   ar
     4    13     1    1
     5     1     2    2
     6     2     3    1
     7     3     4    2
     8     4     5    1
     9     5     6    1
    10     6    18    1
    11    18    19   am
    12    19    20    2
    13    19    21   am
    14    21    24    1
    15    24    25    1
    16    24    26    1
    17    26    27   ar
    18    27    28   ar
    19    28    29   ar
    20    29    30   ar
    21    30    31   ar
    22     6     7    2
    23     7     8    1
    24     8     9    2
    25    13    14   ar
    26    14    15   ar
    27    15    16    1
    28    15    17   ar
    29    17    11   ar
    30     9     1    1
    31     9     4    1
    32    31    26   ar
    33    18    22    1
    34    21    23    1
@<TRIPOS>MOLECULE
*****
 31 34 0 0 0
SMALL
GASTEIGER

@<TRIPOS>ATOM
      1 C         141.5923  142.4136  165.7923 C.2     1  UNL1        0.1078
      2 N         143.0773  142.6180  165.8463 N.2     1  UNL1       -0.1481
      3 N         143.4612  143.5279  164.7173 N.2     1  UNL1       -0.1516
      4 C         142.2135  143.8859  163.9655 C.2     1  UNL1        0.0979
      5 C         141.9799  144.7499  162.7619 C.3     1  UNL1        0.1651
      6 C         140.5912  144.9253  162.2227 C.2     1  UNL1        0.3110
      7 N         139.4361  144.2366  162.8871 N.2     1  UNL1       -0.0399
      8 C         139.6697  143.3725  164.0908 C.2     1  UNL1        0.2380
      9 C         141.0584  143.1972  164.6300 C.2     1  UNL1        0.0820
     10 C         140.2848  141.0807  170.6414 C.3     1  UNL1        0.0521
     11 C         140.1294  140.9067  169.1597 C.ar    1  UNL1        0.0590
     12 C         140.9385  141.7471  168.2168 C.ar    1  UNL1        0.0163
     13 C         140.7831  141.5732  166.7352 C.ar    1  UNL1        0.0219
     14 C         139.8184  140.5587  166.1962 C.ar    1  UNL1        0.0163
     15 C         139.0093  139.7182  167.1391 C.ar    1  UNL1        0.0590
     16 C         138.0447  138.7038  166.6001 C.3     1  UNL1        0.0521
     17 N         139.1648  139.8922  168.6208 N.ar    1  UNL1       -0.2540
     18 N         140.3576  145.7894  161.0190 N.am    1  UNL1       -0.1565
     19 C         140.5703  145.2318  159.6428 C.2     1  UNL1        0.3925
     20 O         141.0166  143.8101  159.4703 O.2     1  UNL1       -0.2238
     21 N         140.3367  146.0958  158.4391 N.am    1  UNL1       -0.2666
     22 H         140.0647  146.7224  161.1322 H       1  UNL1        0.3027
     23 H         140.0437  147.0289  158.5523 H       1  UNL1        0.1533
     24 C         140.5494  145.5382  157.0630 C.3     1  UNL1        0.0977
     25 C         141.9156  145.5687  156.4443 C.3     1  UNL1        0.0263
     26 C         139.3960  144.9501  156.3055 C.ar    1  UNL1       -0.0044
     27 C         138.6153  145.8012  155.3483 C.ar    1  UNL1       -0.0027
     28 C         137.4619  145.2132  154.5908 C.ar    1  UNL1       -0.0003
     29 C         137.0892  143.7740  154.7904 C.ar    1  UNL1       -0.0000
     30 C         137.8698  142.9229  155.7476 C.ar    1  UNL1       -0.0003
     31 C         139.0233  143.5110  156.5052 C.ar    1  UNL1       -0.0027
@<TRIPOS>BOND
     1    10    11    1
     2    11    12   ar
     3    12    13   ar
     4    13     1    1
     5     1     2    2
     6     2     3    1
     7     3     4    2
     8     4     5    1
     9     5     6    1
    10     6    18    1
    11    18    19   am
    12    19    20    2
    13    19    21   am
    14    21    24    1
    15    24    25    1
    16    24    26    1
    17    26    27   ar
    18    27    28   ar
    19    28    29   ar
    20    29    30   ar
    21    30    31   ar
    22     6     7    2
    23     7     8    1
    24     8     9    2
    25    13    14   ar
    26    14    15   ar
    27    15    16    1
    28    15    17   ar
    29    17    11   ar
    30     9     1    1
    31     9     4    1
    32    31    26   ar
    33    18    22    1
    34    21    23    1
@<TRIPOS>MOLECULE
*****
 31 34 0 0 0
SMALL
GASTEIGER

@<TRIPOS>ATOM
      1 C         143.6936  138.6210  156.0862 C.2     1  UNL1        0.1078
      2 N         145.1224  138.8288  155.6797 N.2     1  UNL1       -0.1481
      3 N         145.5814  140.1373  156.2517 N.2     1  UNL1       -0.1516
      4 C         144.4363  140.7381  157.0118 C.2     1  UNL1        0.0979
      5 C         144.3053  142.0175  157.7838 C.3     1  UNL1        0.1651
      6 C         143.0076  142.3597  158.4536 C.2     1  UNL1        0.3110
      7 N         141.8408  141.4226  158.3513 N.2     1  UNL1       -0.0399
      8 C         141.9718  140.1433  157.5793 C.2     1  UNL1        0.2380
      9 C         143.2696  139.8010  156.9095 C.2     1  UNL1        0.0820
     10 C         142.6386  133.5485  156.4815 C.3     1  UNL1        0.0521
     11 C         142.3113  134.9042  155.9293 C.ar    1  UNL1        0.0590
     12 C         143.1661  136.0848  156.2838 C.ar    1  UNL1        0.0163
     13 C         142.8388  137.4405  155.7318 C.ar    1  UNL1        0.0219
     14 C         141.6567  137.6157  154.8251 C.ar    1  UNL1        0.0163
     15 C         140.8019  136.4351  154.4706 C.ar    1  UNL1        0.0590
     16 C         139.6198  136.6104  153.5640 C.3     1  UNL1        0.0521
     17 N         141.1292  135.0794  155.0227 N.ar    1  UNL1       -0.2540
     18 N         142.8765  143.6391  159.2256 N.am    1  UNL1       -0.1565
     19 C         142.6209  143.6006  160.7032 C.2     1  UNL1        0.3925
     20 O         142.4964  142.2827  161.4087 O.2     1  UNL1       -0.2238
     21 N         142.4899  144.8799  161.4753 N.am    1  UNL1       -0.2666
     22 H         142.9582  144.5041  158.7626 H       1  UNL1        0.3027
     23 H         142.5716  145.7449  161.0122 H       1  UNL1        0.1533
     24 C         142.2343  144.8414  162.9528 C.3     1  UNL1        0.0977
     25 C         143.3572  145.0934  163.9150 C.3     1  UNL1        0.0263
     26 C         140.8559  144.5509  163.4682 C.ar    1  UNL1       -0.0044
     27 C         139.6560  144.8990  162.6381 C.ar    1  UNL1       -0.0027
     28 C         138.2776  144.6085  163.1535 C.ar    1  UNL1       -0.0003
     29 C         138.0991  143.9700  164.4990 C.ar    1  UNL1       -0.0000
     30 C         139.2990  143.6219  165.3291 C.ar    1  UNL1       -0.0003
     31 C         140.6774  143.9124  164.8137 C.ar    1  UNL1       -0.0027
@<TRIPOS>BOND
     1    10    11    1
     2    11    12   ar
     3    12    13   ar
     4    13     1    1
     5     1     2    2
     6     2     3    1
     7     3     4    2
     8     4     5    1
     9     5     6    1
    10     6    18    1
    11    18    19   am
    12    19    20    2
    13    19    21   am
    14    21    24    1
    15    24    25    1
    16    24    26    1
    17    26    27   ar
    18    27    28   ar
    19    28    29   ar
    20    29    30   ar
    21    30    31   ar
    22     6     7    2
    23     7     8    1
    24     8     9    2
    25    13    14   ar
    26    14    15   ar
    27    15    16    1
    28    15    17   ar
    29    17    11   ar
    30     9     1    1
    31     9     4    1
    32    31    26   ar
    33    18    22    1
    34    21    23    1
@<TRIPOS>MOLECULE
*****
 31 34 0 0 0
SMALL
GASTEIGER

@<TRIPOS>ATOM
      1 C         142.4112  142.1503  164.5271 C.2     1  UNL1        0.1078
      2 N         142.4142  143.5435  163.9711 N.2     1  UNL1       -0.1481
      3 N         142.7793  143.4620  162.5186 N.2     1  UNL1       -0.1516
      4 C         143.0020  142.0186  162.1768 C.2     1  UNL1        0.0979
      5 C         143.3826  141.3376  160.8956 C.3     1  UNL1        0.1651
      6 C         143.5356  139.8460  160.8558 C.2     1  UNL1        0.3110
      7 N         143.3080  139.0353  162.0971 N.2     1  UNL1       -0.0399
      8 C         142.9275  139.7163  163.3783 C.2     1  UNL1        0.2380
      9 C         142.7745  141.2079  163.4181 C.2     1  UNL1        0.0820
     10 C         143.6694  142.1453  169.5686 C.3     1  UNL1        0.0521
     11 C         142.7286  141.7644  168.4641 C.ar    1  UNL1        0.0590
     12 C         143.0402  142.1478  167.0478 C.ar    1  UNL1        0.0163
     13 C         142.0995  141.7669  165.9434 C.ar    1  UNL1        0.0219
     14 C         140.8471  141.0025  166.2552 C.ar    1  UNL1        0.0163
     15 C         140.5355  140.6191  167.6715 C.ar    1  UNL1        0.0590
     16 C         139.2831  139.8547  167.9833 C.3     1  UNL1        0.0521
     17 N         141.4762  141.0000  168.7760 N.ar    1  UNL1       -0.2540
     18 N         143.9162  139.1650  159.5745 N.am    1  UNL1       -0.1565
     19 C         142.8711  138.4626  158.7594 C.2     1  UNL1        0.3925
     20 O         141.4454  138.4413  159.2255 O.2     1  UNL1       -0.2238
     21 N         143.2516  137.7817  157.4782 N.am    1  UNL1       -0.2666
     22 H         144.8518  139.1791  159.2687 H       1  UNL1        0.3027
     23 H         144.1873  137.7957  157.1723 H       1  UNL1        0.1533
     24 C         142.2065  137.0793  156.6631 C.3     1  UNL1        0.0977
     25 C         141.0854  137.8618  156.0460 C.3     1  UNL1        0.0263
     26 C         142.2826  135.5944  156.4649 C.ar    1  UNL1       -0.0044
     27 C         141.4093  134.9284  155.4432 C.ar    1  UNL1       -0.0027
     28 C         141.4853  133.4435  155.2450 C.ar    1  UNL1       -0.0003
     29 C         142.4347  132.6246  156.0686 C.ar    1  UNL1       -0.0000
     30 C         143.3079  133.2905  157.0902 C.ar    1  UNL1       -0.0003
     31 C         143.2319  134.7755  157.2884 C.ar    1  UNL1       -0.0027
@<TRIPOS>BOND
     1    10    11    1
     2    11    12   ar
     3    12    13   ar
     4    13     1    1
     5     1     2    2
     6     2     3    1
     7     3     4    2
     8     4     5    1
     9     5     6    1
    10     6    18    1
    11    18    19   am
    12    19    20    2
    13    19    21   am
    14    21    24    1
    15    24    25    1
    16    24    26    1
    17    26    27   ar
    18    27    28   ar
    19    28    29   ar
    20    29    30   ar
    21    30    31   ar
    22     6     7    2
    23     7     8    1
    24     8     9    2
    25    13    14   ar
    26    14    15   ar
    27    15    16    1
    28    15    17   ar
    29    17    11   ar
    30     9     1    1
    31     9     4    1
    32    31    26   ar
    33    18    22    1
    34    21    23    1
@<TRIPOS>MOLECULE
*****
 31 34 0 0 0
SMALL
GASTEIGER

@<TRIPOS>ATOM
      1 C         140.0943  138.9079  165.1728 C.2     1  UNL1        0.1078
      2 N         140.6686  137.5595  164.8538 N.2     1  UNL1       -0.1481
      3 N         140.1973  137.1671  163.4849 N.2     1  UNL1       -0.1516
      4 C         139.3318  138.2731  162.9579 C.2     1  UNL1        0.0979
      5 C         138.5934  138.4395  161.6629 C.3     1  UNL1        0.1651
      6 C         137.7913  139.6817  161.4111 C.2     1  UNL1        0.3110
      7 N         137.7276  140.7576  162.4544 N.2     1  UNL1       -0.0399
      8 C         138.4660  140.5913  163.7494 C.2     1  UNL1        0.2380
      9 C         139.2681  139.3490  164.0011 C.2     1  UNL1        0.0820
     10 C         138.5394  140.2367  169.9495 C.3     1  UNL1        0.0521
     11 C         139.5311  140.3443  168.8293 C.ar    1  UNL1        0.0590
     12 C         139.3169  139.5723  167.5612 C.ar    1  UNL1        0.0163
     13 C         140.3085  139.6799  166.4410 C.ar    1  UNL1        0.0219
     14 C         141.5146  140.5595  166.5890 C.ar    1  UNL1        0.0163
     15 C         141.7289  141.3314  167.8571 C.ar    1  UNL1        0.0590
     16 C         142.9349  142.2110  168.0050 C.3     1  UNL1        0.0521
     17 N         140.7371  141.2238  168.9773 N.ar    1  UNL1       -0.2540
     18 N         137.0529  139.8481  160.1161 N.am    1  UNL1       -0.1565
     19 C         137.7945  140.2523  158.8765 C.2     1  UNL1        0.3925
     20 O         139.2745  140.4901  158.9319 O.2     1  UNL1       -0.2238
     21 N         137.0561  140.4188  157.5815 N.am    1  UNL1       -0.2666
     22 H         136.0815  139.6921  160.0797 H       1  UNL1        0.3027
     23 H         136.0848  140.2627  157.5451 H       1  UNL1        0.1533
     24 C         137.7978  140.8229  156.3419 C.3     1  UNL1        0.0977
     25 C         138.4352  139.7779  155.4749 C.3     1  UNL1        0.0263
     26 C         137.9020  142.2721  155.9692 C.ar    1  UNL1       -0.0044
     27 C         136.8852  142.8859  155.0529 C.ar    1  UNL1       -0.0027
     28 C         136.9894  144.3351  154.6802 C.ar    1  UNL1       -0.0003
     29 C         138.1103  145.1706  155.2238 C.ar    1  UNL1       -0.0000
     30 C         139.1270  144.5569  156.1400 C.ar    1  UNL1       -0.0003
     31 C         139.0229  143.1076  156.5128 C.ar    1  UNL1       -0.0027
@<TRIPOS>BOND
     1    10    11    1
     2    11    12   ar
     3    12    13   ar
     4    13     1    1
     5     1     2    2
     6     2     3    1
     7     3     4    2
     8     4     5    1
     9     5     6    1
    10     6    18    1
    11    18    19   am
    12    19    20    2
    13    19    21   am
    14    21    24    1
    15    24    25    1
    16    24    26    1
    17    26    27   ar
    18    27    28   ar
    19    28    29   ar
    20    29    30   ar
    21    30    31   ar
    22     6     7    2
    23     7     8    1
    24     8     9    2
    25    13    14   ar
    26    14    15   ar
    27    15    16    1
    28    15    17   ar
    29    17    11   ar
    30     9     1    1
    31     9     4    1
    32    31    26   ar
    33    18    22    1
    34    21    23    1
@<TRIPOS>MOLECULE
*****
 31 34 0 0 0
SMALL
GASTEIGER

@<TRIPOS>ATOM
      1 C         140.2522  139.5109  166.6033 C.2     1  UNL1        0.1078
      2 N         138.8384  139.0602  166.3844 N.2     1  UNL1       -0.1481
      3 N         138.7792  138.3430  165.0682 N.2     1  UNL1       -0.1516
      4 C         140.1564  138.3505  164.4738 C.2     1  UNL1        0.0979
      5 C         140.6991  137.7933  163.1913 C.3     1  UNL1        0.1651
      6 C         142.1521  137.9580  162.8575 C.2     1  UNL1        0.3110
      7 N         143.0625  138.6799  163.8062 N.2     1  UNL1       -0.0399
      8 C         142.5198  139.2370  165.0888 C.2     1  UNL1        0.2380
      9 C         141.0668  139.0724  165.4226 C.2     1  UNL1        0.0820
     10 C         140.2960  143.8094  169.5225 C.3     1  UNL1        0.0521
     11 C         140.7839  142.4167  169.2536 C.ar    1  UNL1        0.0590
     12 C         140.2742  141.6601  168.0629 C.ar    1  UNL1        0.0163
     13 C         140.7620  140.2675  167.7941 C.ar    1  UNL1        0.0219
     14 C         141.7598  139.6313  168.7160 C.ar    1  UNL1        0.0163
     15 C         142.2695  140.3878  169.9067 C.ar    1  UNL1        0.0590
     16 C         143.2672  139.7516  170.8285 C.3     1  UNL1        0.0521
     17 N         141.7816  141.7805  170.1755 N.ar    1  UNL1       -0.2540
     18 N         142.6949  137.4008  161.5749 N.am    1  UNL1       -0.1565
     19 C         142.4180  138.0999  160.2769 C.2     1  UNL1        0.3925
     20 O         141.5985  139.3562  160.2616 O.2     1  UNL1       -0.2238
     21 N         142.9607  137.5428  158.9943 N.am    1  UNL1       -0.2666
     22 H         143.2328  136.5763  161.5849 H       1  UNL1        0.3027
     23 H         143.4987  136.7183  159.0044 H       1  UNL1        0.1533
     24 C         142.6839  138.2419  157.6964 C.3     1  UNL1        0.0977
     25 C         143.3833  139.5291  157.3738 C.3     1  UNL1        0.0263
     26 C         141.7078  137.6538  156.7211 C.ar    1  UNL1       -0.0044
     27 C         142.1894  136.7271  155.6443 C.ar    1  UNL1       -0.0027
     28 C         141.2132  136.1390  154.6690 C.ar    1  UNL1       -0.0003
     29 C         139.7554  136.4776  154.7704 C.ar    1  UNL1       -0.0000
     30 C         139.2738  137.4042  155.8471 C.ar    1  UNL1       -0.0003
     31 C         140.2500  137.9923  156.8225 C.ar    1  UNL1       -0.0027
@<TRIPOS>BOND
     1    10    11    1
     2    11    12   ar
     3    12    13   ar
     4    13     1    1
     5     1     2    2
     6     2     3    1
     7     3     4    2
     8     4     5    1
     9     5     6    1
    10     6    18    1
    11    18    19   am
    12    19    20    2
    13    19    21   am
    14    21    24    1
    15    24    25    1
    16    24    26    1
    17    26    27   ar
    18    27    28   ar
    19    28    29   ar
    20    29    30   ar
    21    30    31   ar
    22     6     7    2
    23     7     8    1
    24     8     9    2
    25    13    14   ar
    26    14    15   ar
    27    15    16    1
    28    15    17   ar
    29    17    11   ar
    30     9     1    1
    31     9     4    1
    32    31    26   ar
    33    18    22    1
    34    21    23    1
@<TRIPOS>MOLECULE
*****
 31 34 0 0 0
SMALL
GASTEIGER

@<TRIPOS>ATOM
      1 C         143.4262  136.3772  156.1848 C.2     1  UNL1        0.1078
      2 N         144.6435  137.0857  155.6690 N.2     1  UNL1       -0.1481
      3 N         144.4030  138.5620  155.7816 N.2     1  UNL1       -0.1516
      4 C         143.0371  138.7659  156.3671 C.2     1  UNL1        0.0979
      5 C         142.2651  140.0066  156.7055 C.3     1  UNL1        0.1651
      6 C         140.8894  139.8970  157.2931 C.2     1  UNL1        0.3110
      7 N         140.2857  138.5467  157.5423 N.2     1  UNL1       -0.0399
      8 C         141.0577  137.3060  157.2039 C.2     1  UNL1        0.2380
      9 C         142.4334  137.4156  156.6163 C.2     1  UNL1        0.0820
     10 C         144.9235  131.7281  157.9579 C.3     1  UNL1        0.0521
     11 C         143.9838  132.5666  157.1432 C.ar    1  UNL1        0.0590
     12 C         144.1748  134.0526  157.0714 C.ar    1  UNL1        0.0163
     13 C         143.2352  134.8911  156.2566 C.ar    1  UNL1        0.0219
     14 C         142.1043  134.2435  155.5136 C.ar    1  UNL1        0.0163
     15 C         141.9133  132.7575  155.5854 C.ar    1  UNL1        0.0590
     16 C         140.7826  132.1100  154.8424 C.3     1  UNL1        0.0521
     17 N         142.8530  131.9190  156.4002 N.ar    1  UNL1       -0.2540
     18 N         140.1173  141.1378  157.6315 N.am    1  UNL1       -0.1565
     19 C         140.4429  141.9072  158.8773 C.2     1  UNL1        0.3925
     20 O         141.5404  141.4359  159.7847 O.2     1  UNL1       -0.2238
     21 N         139.6709  143.1480  159.2158 N.am    1  UNL1       -0.2666
     22 H         139.3970  141.4471  157.0360 H       1  UNL1        0.3027
     23 H         138.9505  143.4573  158.6202 H       1  UNL1        0.1533
     24 C         139.9964  143.9174  160.4616 C.3     1  UNL1        0.0977
     25 C         141.1134  144.9186  160.4544 C.3     1  UNL1        0.0263
     26 C         139.2049  143.6857  161.7145 C.ar    1  UNL1       -0.0044
     27 C         139.3210  144.6438  162.8629 C.ar    1  UNL1       -0.0027
     28 C         138.5295  144.4121  164.1158 C.ar    1  UNL1       -0.0003
     29 C         137.6220  143.2224  164.2205 C.ar    1  UNL1       -0.0000
     30 C         137.5060  142.2643  163.0722 C.ar    1  UNL1       -0.0003
     31 C         138.2974  142.4960  161.8191 C.ar    1  UNL1       -0.0027
@<TRIPOS>BOND
     1    10    11    1
     2    11    12   ar
     3    12    13   ar
     4    13     1    1
     5     1     2    2
     6     2     3    1
     7     3     4    2
     8     4     5    1
     9     5     6    1
    10     6    18    1
    11    18    19   am
    12    19    20    2
    13    19    21   am
    14    21    24    1
    15    24    25    1
    16    24    26    1
    17    26    27   ar
    18    27    28   ar
    19    28    29   ar
    20    29    30   ar
    21    30    31   ar
    22     6     7    2
    23     7     8    1
    24     8     9    2
    25    13    14   ar
    26    14    15   ar
    27    15    16    1
    28    15    17   ar
    29    17    11   ar
    30     9     1    1
    31     9     4    1
    32    31    26   ar
    33    18    22    1
    34    21    23    1
