@<TRIPOS>MOLECULE
*****
 41 46 0 0 0
SMALL
GASTEIGER

@<TRIPOS>ATOM
      1 C         143.8104  142.4314  158.8681 C.3     1  UNL1        0.0584
      2 C         145.2072  142.5350  158.3312 C.3     1  UNL1        0.0174
      3 N         143.5748  142.4256  160.3494 N.3     1  UNL1       -0.2733
      4 C         144.7941  142.6120  161.2031 C.3     1  UNL1        0.0768
      5 C         144.8908  142.6530  162.6994 C.3     1  UNL1        0.0434
      6 C         143.7922  142.5178  163.7116 C.ar    1  UNL1       -0.0225
      7 C         144.3215  142.6176  165.1116 C.ar    1  UNL1        0.0178
      8 C         143.3841  142.5078  166.2775 C.ar    1  UNL1        0.1190
      9 N         143.6133  142.5671  167.7586 N.ar    1  UNL1       -0.2050
     10 C         142.2882  142.3941  168.4400 C.ar    1  UNL1        0.3031
     11 O         141.2401  142.2279  167.3799 O.2     1  UNL1       -0.4312
     12 C         141.9174  142.2982  166.0435 C.ar    1  UNL1        0.1704
     13 C         141.3880  142.1984  164.6435 C.ar    1  UNL1        0.0664
     14 BR        139.9214  141.9888  164.4094 Br      1  UNL1       -0.0461
     15 C         142.3254  142.3082  163.4776 C.ar    1  UNL1       -0.0154
     16 C         141.5951  142.1820  162.1735 C.3     1  UNL1        0.0439
     17 C         142.1512  142.2343  160.7813 C.3     1  UNL1        0.0768
     18 C         142.0527  142.3883  169.9214 C.3     1  UNL1        0.4696
     19 F         141.8172  142.3826  171.4027 F       1  UNL1       -0.1619
     20 F         141.2690  143.6617  169.8018 F       1  UNL1       -0.1619
     21 F         142.8364  141.1150  170.0411 F       1  UNL1       -0.1619
     22 C         142.6492  142.3336  157.9236 C.3     1  UNL1        0.0280
     23 C         142.7410  141.4565  156.7102 C.3     1  UNL1        0.0665
     24 S         142.2649  140.0355  156.7742 S.3     1  UNL1       -0.0756
     25 C         141.4743  138.5329  160.2645 C.ar    1  UNL1        0.1669
     26 N         142.8041  137.9033  159.9723 N.ar    1  UNL1       -0.1282
     27 N         143.2621  138.3896  158.6292 N.ar    1  UNL1       -0.1221
     28 C         142.2154  139.3197  158.0914 C.ar    1  UNL1        0.1932
     29 N         141.1105  139.4082  159.1020 N.ar    1  UNL1       -0.2884
     30 C         139.8611  140.2283  158.9728 C.3     1  UNL1        0.1340
     31 C         143.1975  138.8218  166.9126 C.3     1  UNL1        0.0521
     32 C         142.5613  138.6973  165.5599 C.ar    1  UNL1        0.0593
     33 C         143.3830  138.9064  164.3225 C.ar    1  UNL1        0.0147
     34 C         142.7468  138.7819  162.9698 C.ar    1  UNL1        0.0028
     35 C         141.2889  138.4483  162.8546 C.ar    1  UNL1        0.0206
     36 C         140.6526  138.3238  161.5019 C.ar    1  UNL1        0.0374
     37 C         139.1947  137.9903  161.3866 C.ar    1  UNL1        0.0031
     38 C         138.3731  137.7812  162.6240 C.ar    1  UNL1        0.0016
     39 C         139.0093  137.9057  163.9767 C.ar    1  UNL1        0.0191
     40 C         140.4672  138.2393  164.0919 C.ar    1  UNL1        0.0810
     41 N         141.1035  138.3638  165.4446 N.ar    1  UNL1       -0.2497
@<TRIPOS>BOND
     1    31    32    1
     2    32    33   ar
     3    33    34   ar
     4    34    35   ar
     5    35    36   ar
     6    36    25    1
     7    25    26   ar
     8    26    27   ar
     9    27    28   ar
    10    28    24    1
    11    24    23    1
    12    23    22    1
    13    22     1    1
    14     1     2    1
    15     1     3    1
    16     3     4    1
    17     4     5    1
    18     5     6    1
    19     6     7   ar
    20     7     8   ar
    21     8     9   ar
    22     9    10   ar
    23    10    18    1
    24    18    19    1
    25    18    20    1
    26    18    21    1
    27    10    11   ar
    28    11    12   ar
    29    12    13   ar
    30    13    14    1
    31    13    15   ar
    32    15    16    1
    33    16    17    1
    34    28    29   ar
    35    29    30    1
    36    36    37   ar
    37    37    38   ar
    38    38    39   ar
    39    39    40   ar
    40    40    41   ar
    41    41    32   ar
    42    40    35   ar
    43    29    25   ar
    44    17     3    1
    45    15     6   ar
    46    12     8   ar
@<TRIPOS>MOLECULE
*****
 41 46 0 0 0
SMALL
GASTEIGER

@<TRIPOS>ATOM
      1 C         138.7472  139.9880  158.8663 C.3     1  UNL1        0.0584
      2 C         137.7969  140.9214  158.1767 C.3     1  UNL1        0.0174
      3 N         138.8999  140.0399  160.3576 N.3     1  UNL1       -0.2733
      4 C         138.4470  138.8182  161.1010 C.3     1  UNL1        0.0768
      5 C         138.4676  138.5615  162.5788 C.3     1  UNL1        0.0434
      6 C         138.9462  139.4629  163.6780 C.ar    1  UNL1       -0.0225
      7 C         138.7903  138.8174  165.0230 C.ar    1  UNL1        0.0178
      8 C         139.2106  139.5526  166.2611 C.ar    1  UNL1        0.1190
      9 N         139.1777  139.1753  167.7124 N.ar    1  UNL1       -0.2050
     10 C         139.7336  140.3228  168.5025 C.ar    1  UNL1        0.3031
     11 O         140.1100  141.4094  167.5394 O.2     1  UNL1       -0.4312
     12 C         139.7868  140.9335  166.1542 C.ar    1  UNL1        0.1704
     13 C         139.9426  141.5790  164.8091 C.ar    1  UNL1        0.0664
     14 BR        140.5188  142.9597  164.7022 Br      1  UNL1       -0.0461
     15 C         139.5224  140.8437  163.5711 C.ar    1  UNL1       -0.0154
     16 C         139.7623  141.6641  162.3384 C.3     1  UNL1        0.0439
     17 C         139.4852  141.3063  160.9083 C.3     1  UNL1        0.0768
     18 C         139.8862  140.3746  169.9938 C.3     1  UNL1        0.4696
     19 F         140.0388  140.4264  171.4851 F       1  UNL1       -0.1619
     20 F         138.8122  141.4192  170.0675 F       1  UNL1       -0.1619
     21 F         140.9602  139.3301  169.9202 F       1  UNL1       -0.1619
     22 C         139.5449  139.0026  158.0646 C.3     1  UNL1        0.0280
     23 C         140.2324  139.4415  156.8058 C.3     1  UNL1        0.0665
     24 S         141.7195  139.6378  156.7927 S.3     1  UNL1       -0.0756
     25 C         143.4174  140.4049  160.1976 C.ar    1  UNL1        0.1669
     26 N         143.9024  139.0090  159.9399 N.ar    1  UNL1       -0.1282
     27 N         143.3253  138.5518  158.6330 N.ar    1  UNL1       -0.1221
     28 C         142.4838  139.6650  158.0830 C.ar    1  UNL1        0.1932
     29 N         142.5407  140.8103  159.0501 N.ar    1  UNL1       -0.2884
     30 C         141.8433  142.1294  158.8964 C.3     1  UNL1        0.1340
     31 C         142.8728  139.0902  166.9226 C.3     1  UNL1        0.0521
     32 C         143.0922  139.6294  165.5402 C.ar    1  UNL1        0.0593
     33 C         142.7589  138.7869  164.3448 C.ar    1  UNL1        0.0147
     34 C         142.9784  139.3262  162.9624 C.ar    1  UNL1        0.0028
     35 C         143.5313  140.7081  162.7755 C.ar    1  UNL1        0.0206
     36 C         143.7508  141.2474  161.3931 C.ar    1  UNL1        0.0374
     37 C         144.3036  142.6293  161.2061 C.ar    1  UNL1        0.0031
     38 C         144.6369  143.4718  162.4015 C.ar    1  UNL1        0.0016
     39 C         144.4174  142.9325  163.7840 C.ar    1  UNL1        0.0191
     40 C         143.8645  141.5506  163.9708 C.ar    1  UNL1        0.0810
     41 N         143.6450  141.0113  165.3533 N.ar    1  UNL1       -0.2497
@<TRIPOS>BOND
     1    31    32    1
     2    32    33   ar
     3    33    34   ar
     4    34    35   ar
     5    35    36   ar
     6    36    25    1
     7    25    26   ar
     8    26    27   ar
     9    27    28   ar
    10    28    24    1
    11    24    23    1
    12    23    22    1
    13    22     1    1
    14     1     2    1
    15     1     3    1
    16     3     4    1
    17     4     5    1
    18     5     6    1
    19     6     7   ar
    20     7     8   ar
    21     8     9   ar
    22     9    10   ar
    23    10    18    1
    24    18    19    1
    25    18    20    1
    26    18    21    1
    27    10    11   ar
    28    11    12   ar
    29    12    13   ar
    30    13    14    1
    31    13    15   ar
    32    15    16    1
    33    16    17    1
    34    28    29   ar
    35    29    30    1
    36    36    37   ar
    37    37    38   ar
    38    38    39   ar
    39    39    40   ar
    40    40    41   ar
    41    41    32   ar
    42    40    35   ar
    43    29    25   ar
    44    17     3    1
    45    15     6   ar
    46    12     8   ar
@<TRIPOS>MOLECULE
*****
 41 46 0 0 0
SMALL
GASTEIGER

@<TRIPOS>ATOM
      1 C         143.0923  141.1605  169.4021 C.3     1  UNL1        0.0584
      2 C         143.8423  142.3550  169.9126 C.3     1  UNL1        0.0174
      3 N         143.0817  140.8527  167.9340 N.3     1  UNL1       -0.2733
      4 C         142.8297  139.4191  167.5715 C.3     1  UNL1        0.0768
      5 C         142.7583  138.7979  166.2080 C.3     1  UNL1        0.0434
      6 C         142.9212  139.4568  164.8705 C.ar    1  UNL1       -0.0225
      7 C         142.7747  138.4687  163.7513 C.ar    1  UNL1        0.0178
      8 C         142.9028  138.9235  162.3277 C.ar    1  UNL1        0.1190
      9 N         142.8078  138.1849  161.0257 N.ar    1  UNL1       -0.2050
     10 C         143.0237  139.1712  159.9164 C.ar    1  UNL1        0.3031
     11 O         143.2521  140.5194  160.5329 O.2     1  UNL1       -0.4312
     12 C         143.1774  140.3664  162.0231 C.ar    1  UNL1        0.1704
     13 C         143.3239  141.3544  163.1422 C.ar    1  UNL1        0.0664
     14 BR        143.5984  142.7972  162.8376 Br      1  UNL1       -0.0461
     15 C         143.1958  140.8996  164.5658 C.ar    1  UNL1       -0.0154
     16 C         143.3753  142.0400  165.5237 C.3     1  UNL1        0.0439
     17 C         143.3245  142.0190  167.0227 C.3     1  UNL1        0.0768
     18 C         143.0131  138.8633  158.4483 C.3     1  UNL1        0.4696
     19 F         143.0025  138.5554  156.9804 F       1  UNL1       -0.1619
     20 F         143.7258  140.1541  158.1724 F       1  UNL1       -0.1619
     21 F         142.3005  137.5726  158.7242 F       1  UNL1       -0.1619
     22 C         142.3529  140.2738  170.3596 C.3     1  UNL1        0.0280
     23 C         141.1430  140.7913  171.0795 C.3     1  UNL1        0.0665
     24 S         139.7853  140.6591  170.4557 S.3     1  UNL1       -0.0756
     25 C         139.6247  141.3024  166.6314 C.ar    1  UNL1        0.1669
     26 N         139.2382  139.8546  166.6982 N.ar    1  UNL1       -0.1282
     27 N         139.2513  139.4374  168.1390 N.ar    1  UNL1       -0.1221
     28 C         139.6459  140.6273  168.9625 C.ar    1  UNL1        0.1932
     29 N         139.8767  141.7799  168.0307 N.ar    1  UNL1       -0.2884
     30 C         140.2874  143.1667  168.4286 C.3     1  UNL1        0.1340
     31 C         139.3529  139.5016  160.0031 C.3     1  UNL1        0.0521
     32 C         139.4494  140.1581  161.3483 C.ar    1  UNL1        0.0593
     33 C         139.3350  139.3327  162.5956 C.ar    1  UNL1        0.0147
     34 C         139.4316  139.9893  163.9409 C.ar    1  UNL1        0.0028
     35 C         139.6426  141.4712  164.0388 C.ar    1  UNL1        0.0206
     36 C         139.7391  142.1277  165.3840 C.ar    1  UNL1        0.0374
     37 C         139.9501  143.6096  165.4820 C.ar    1  UNL1        0.0031
     38 C         140.0645  144.4349  164.2347 C.ar    1  UNL1        0.0016
     39 C         139.9680  143.7784  162.8894 C.ar    1  UNL1        0.0191
     40 C         139.7570  142.2964  162.7915 C.ar    1  UNL1        0.0810
     41 N         139.6604  141.6399  161.4463 N.ar    1  UNL1       -0.2497
@<TRIPOS>BOND
     1    31    32    1
     2    32    33   ar
     3    33    34   ar
     4    34    35   ar
     5    35    36   ar
     6    36    25    1
     7    25    26   ar
     8    26    27   ar
     9    27    28   ar
    10    28    24    1
    11    24    23    1
    12    23    22    1
    13    22     1    1
    14     1     2    1
    15     1     3    1
    16     3     4    1
    17     4     5    1
    18     5     6    1
    19     6     7   ar
    20     7     8   ar
    21     8     9   ar
    22     9    10   ar
    23    10    18    1
    24    18    19    1
    25    18    20    1
    26    18    21    1
    27    10    11   ar
    28    11    12   ar
    29    12    13   ar
    30    13    14    1
    31    13    15   ar
    32    15    16    1
    33    16    17    1
    34    28    29   ar
    35    29    30    1
    36    36    37   ar
    37    37    38   ar
    38    38    39   ar
    39    39    40   ar
    40    40    41   ar
    41    41    32   ar
    42    40    35   ar
    43    29    25   ar
    44    17     3    1
    45    15     6   ar
    46    12     8   ar
@<TRIPOS>MOLECULE
*****
 41 46 0 0 0
SMALL
GASTEIGER

@<TRIPOS>ATOM
      1 C         138.8314  139.7921  159.0721 C.3     1  UNL1        0.0584
      2 C         137.8680  140.6874  158.3510 C.3     1  UNL1        0.0174
      3 N         139.0086  139.9212  160.5560 N.3     1  UNL1       -0.2733
      4 C         139.5202  141.2467  161.0374 C.3     1  UNL1        0.0768
      5 C         139.8003  141.6861  162.4440 C.3     1  UNL1        0.0434
      6 C         139.6379  140.9088  163.7165 C.ar    1  UNL1       -0.0225
      7 C         140.0326  141.7251  164.9114 C.ar    1  UNL1        0.0178
      8 C         139.9448  141.1327  166.2867 C.ar    1  UNL1        0.1190
      9 N         140.2624  141.6908  167.6422 N.ar    1  UNL1       -0.2050
     10 C         139.9762  140.6271  168.6603 C.ar    1  UNL1        0.3031
     11 O         139.4817  139.4114  167.9339 O.2     1  UNL1       -0.4312
     12 C         139.4623  139.7239  166.4670 C.ar    1  UNL1        0.1704
     13 C         139.0676  138.9075  165.2720 C.ar    1  UNL1        0.0664
     14 BR        138.5851  137.4988  165.4523 Br      1  UNL1       -0.0461
     15 C         139.1554  139.5000  163.8968 C.ar    1  UNL1       -0.0154
     16 C         138.7161  138.5206  162.8491 C.3     1  UNL1        0.0439
     17 C         138.6508  138.7082  161.3623 C.3     1  UNL1        0.0768
     18 C         140.1533  140.7563  170.1442 C.3     1  UNL1        0.4696
     19 F         140.3306  140.8856  171.6280 F       1  UNL1       -0.1619
     20 F         141.6394  140.8427  169.9592 F       1  UNL1       -0.1619
     21 F         138.6674  140.6700  170.3292 F       1  UNL1       -0.1619
     22 C         139.6178  138.7675  158.3093 C.3     1  UNL1        0.0280
     23 C         140.2709  139.1375  157.0106 C.3     1  UNL1        0.0665
     24 S         141.6983  139.5982  156.9932 S.3     1  UNL1       -0.0756
     25 C         143.4242  140.4218  160.3708 C.ar    1  UNL1        0.1669
     26 N         143.9643  139.0495  160.0964 N.ar    1  UNL1       -0.1282
     27 N         143.3834  138.5739  158.7977 N.ar    1  UNL1       -0.1221
     28 C         142.4844  139.6523  158.2695 C.ar    1  UNL1        0.1932
     29 N         142.5097  140.7943  159.2418 N.ar    1  UNL1       -0.2884
     30 C         141.7531  142.0827  159.1083 C.3     1  UNL1        0.1340
     31 C         142.9480  139.0933  167.0982 C.3     1  UNL1        0.0521
     32 C         143.1467  139.6379  165.7149 C.ar    1  UNL1        0.0593
     33 C         142.8280  138.7875  164.5210 C.ar    1  UNL1        0.0147
     34 C         143.0267  139.3323  163.1376 C.ar    1  UNL1        0.0028
     35 C         143.5441  140.7275  162.9481 C.ar    1  UNL1        0.0206
     36 C         143.7429  141.2722  161.5646 C.ar    1  UNL1        0.0374
     37 C         144.2602  142.6673  161.3751 C.ar    1  UNL1        0.0031
     38 C         144.5789  143.5177  162.5689 C.ar    1  UNL1        0.0016
     39 C         144.3801  142.9730  163.9524 C.ar    1  UNL1        0.0191
     40 C         143.8628  141.5778  164.1418 C.ar    1  UNL1        0.0810
     41 N         143.6640  141.0331  165.5253 N.ar    1  UNL1       -0.2497
@<TRIPOS>BOND
     1    31    32    1
     2    32    33   ar
     3    33    34   ar
     4    34    35   ar
     5    35    36   ar
     6    36    25    1
     7    25    26   ar
     8    26    27   ar
     9    27    28   ar
    10    28    24    1
    11    24    23    1
    12    23    22    1
    13    22     1    1
    14     1     2    1
    15     1     3    1
    16     3     4    1
    17     4     5    1
    18     5     6    1
    19     6     7   ar
    20     7     8   ar
    21     8     9   ar
    22     9    10   ar
    23    10    18    1
    24    18    19    1
    25    18    20    1
    26    18    21    1
    27    10    11   ar
    28    11    12   ar
    29    12    13   ar
    30    13    14    1
    31    13    15   ar
    32    15    16    1
    33    16    17    1
    34    28    29   ar
    35    29    30    1
    36    36    37   ar
    37    37    38   ar
    38    38    39   ar
    39    39    40   ar
    40    40    41   ar
    41    41    32   ar
    42    40    35   ar
    43    29    25   ar
    44    17     3    1
    45    15     6   ar
    46    12     8   ar
@<TRIPOS>MOLECULE
*****
 41 46 0 0 0
SMALL
GASTEIGER

@<TRIPOS>ATOM
      1 C         144.1674  141.4126  158.5378 C.3     1  UNL1        0.0584
      2 C         145.0615  142.4959  158.0114 C.3     1  UNL1        0.0174
      3 N         143.6075  141.5106  159.9259 N.3     1  UNL1       -0.2733
      4 C         143.6776  140.2565  160.7459 C.3     1  UNL1        0.0768
      5 C         143.2090  140.0318  162.1531 C.3     1  UNL1        0.0434
      6 C         142.5546  141.0056  163.0876 C.ar    1  UNL1       -0.0225
      7 C         142.2434  140.3709  164.4106 C.ar    1  UNL1        0.0178
      8 C         141.5848  141.1752  165.4919 C.ar    1  UNL1        0.1190
      9 N         141.1596  140.8237  166.8868 N.ar    1  UNL1       -0.2050
     10 C         140.5494  142.0455  167.5071 C.ar    1  UNL1        0.3031
     11 O         140.5974  143.1521  166.4957 O.2     1  UNL1       -0.4312
     12 C         141.2373  142.6143  165.2503 C.ar    1  UNL1        0.1704
     13 C         141.5485  143.2490  163.9272 C.ar    1  UNL1        0.0664
     14 BR        141.2011  144.6880  163.6855 Br      1  UNL1       -0.0461
     15 C         142.2071  142.4447  162.8459 C.ar    1  UNL1       -0.0154
     16 C         142.4283  143.2653  161.6100 C.3     1  UNL1        0.0439
     17 C         143.0515  142.8495  160.3104 C.3     1  UNL1        0.0768
     18 C         139.9895  142.1434  168.8953 C.3     1  UNL1        0.4696
     19 F         139.4296  142.2414  170.2834 F       1  UNL1       -0.1619
     20 F         140.4657  143.5629  168.9873 F       1  UNL1       -0.1619
     21 F         139.5132  140.7241  168.8033 F       1  UNL1       -0.1619
     22 C         143.8333  140.2312  157.6760 C.3     1  UNL1        0.0280
     23 C         142.7669  140.3455  156.6273 C.3     1  UNL1        0.0665
     24 S         141.4044  139.7702  156.8773 S.3     1  UNL1       -0.0756
     25 C         139.8280  140.2795  160.3873 C.ar    1  UNL1        0.1669
     26 N         140.2662  138.8474  160.4715 N.ar    1  UNL1       -0.1282
     27 N         140.9101  138.4823  159.1668 N.ar    1  UNL1       -0.1221
     28 C         140.8698  139.6887  158.2763 C.ar    1  UNL1        0.1932
     29 N         140.2010  140.7995  159.0307 N.ar    1  UNL1       -0.2884
     30 C         139.9494  142.1866  158.5183 C.3     1  UNL1        0.1340
     31 C         138.0549  138.4824  166.7808 C.3     1  UNL1        0.0521
     32 C         138.3256  139.1256  165.4531 C.ar    1  UNL1        0.0593
     33 C         139.0157  138.3497  164.3706 C.ar    1  UNL1        0.0147
     34 C         139.2865  138.9930  163.0428 C.ar    1  UNL1        0.0028
     35 C         138.8671  140.4122  162.7976 C.ar    1  UNL1        0.0206
     36 C         139.1379  141.0554  161.4698 C.ar    1  UNL1        0.0374
     37 C         138.7185  142.4746  161.2245 C.ar    1  UNL1        0.0031
     38 C         138.0284  143.2504  162.3070 C.ar    1  UNL1        0.0016
     39 C         137.7577  142.6072  163.6348 C.ar    1  UNL1        0.0191
     40 C         138.1770  141.1880  163.8800 C.ar    1  UNL1        0.0810
     41 N         137.9063  140.5447  165.2078 N.ar    1  UNL1       -0.2497
@<TRIPOS>BOND
     1    31    32    1
     2    32    33   ar
     3    33    34   ar
     4    34    35   ar
     5    35    36   ar
     6    36    25    1
     7    25    26   ar
     8    26    27   ar
     9    27    28   ar
    10    28    24    1
    11    24    23    1
    12    23    22    1
    13    22     1    1
    14     1     2    1
    15     1     3    1
    16     3     4    1
    17     4     5    1
    18     5     6    1
    19     6     7   ar
    20     7     8   ar
    21     8     9   ar
    22     9    10   ar
    23    10    18    1
    24    18    19    1
    25    18    20    1
    26    18    21    1
    27    10    11   ar
    28    11    12   ar
    29    12    13   ar
    30    13    14    1
    31    13    15   ar
    32    15    16    1
    33    16    17    1
    34    28    29   ar
    35    29    30    1
    36    36    37   ar
    37    37    38   ar
    38    38    39   ar
    39    39    40   ar
    40    40    41   ar
    41    41    32   ar
    42    40    35   ar
    43    29    25   ar
    44    17     3    1
    45    15     6   ar
    46    12     8   ar
@<TRIPOS>MOLECULE
*****
 41 46 0 0 0
SMALL
GASTEIGER

@<TRIPOS>ATOM
      1 C         141.5319  138.1010  158.6387 C.3     1  UNL1        0.0584
      2 C         142.6462  137.4247  157.8966 C.3     1  UNL1        0.0174
      3 N         141.6428  138.3241  160.1179 N.3     1  UNL1       -0.2733
      4 C         143.0081  138.1228  160.7058 C.3     1  UNL1        0.0768
      5 C         143.4416  138.2667  162.1346 C.3     1  UNL1        0.0434
      6 C         142.6169  138.6473  163.3282 C.ar    1  UNL1       -0.0225
      7 C         143.4440  138.6751  164.5794 C.ar    1  UNL1        0.0178
      8 C         142.8092  139.0336  165.8903 C.ar    1  UNL1        0.1190
      9 N         143.3664  139.1435  167.2786 N.ar    1  UNL1       -0.2050
     10 C         142.2490  139.5422  168.1964 C.ar    1  UNL1        0.3031
     11 O         141.0011  139.6787  167.3753 O.2     1  UNL1       -0.4312
     12 C         141.3473  139.3644  165.9502 C.ar    1  UNL1        0.1704
     13 C         140.5202  139.3366  164.6990 C.ar    1  UNL1        0.0664
     14 BR        139.0584  139.6673  164.7588 Br      1  UNL1       -0.0461
     15 C         141.1551  138.9780  163.3881 C.ar    1  UNL1       -0.0154
     16 C         140.1568  139.0099  162.2690 C.3     1  UNL1        0.0439
     17 C         140.3740  138.7188  160.8136 C.3     1  UNL1        0.0768
     18 C         142.3600  139.7652  169.6756 C.3     1  UNL1        0.4696
     19 F         142.4710  139.9883  171.1547 F       1  UNL1       -0.1619
     20 F         142.0364  141.2169  169.4810 F       1  UNL1       -0.1619
     21 F         142.6837  138.3136  169.8702 F       1  UNL1       -0.1619
     22 C         140.3066  138.5543  157.9017 C.3     1  UNL1        0.0280
     23 C         140.3934  139.6965  156.9332 C.3     1  UNL1        0.0665
     24 S         139.6291  140.9606  157.1938 S.3     1  UNL1       -0.0756
     25 C         139.8928  142.7835  160.6103 C.ar    1  UNL1        0.1669
     26 N         141.0303  143.4095  159.8593 N.ar    1  UNL1       -0.1282
     27 N         141.0700  142.8028  158.4879 N.ar    1  UNL1       -0.1221
     28 C         139.9570  141.8018  158.3916 C.ar    1  UNL1        0.1932
     29 N         139.2295  141.7899  159.7033 N.ar    1  UNL1       -0.2884
     30 C         138.0463  140.9345  160.0474 C.3     1  UNL1        0.1340
     31 C         143.4822  142.5736  166.4689 C.3     1  UNL1        0.0521
     32 C         142.4840  142.7042  165.3569 C.ar    1  UNL1        0.0593
     33 C         142.8874  142.3916  163.9463 C.ar    1  UNL1        0.0147
     34 C         141.8892  142.5222  162.8343 C.ar    1  UNL1        0.0028
     35 C         140.4876  142.9655  163.1329 C.ar    1  UNL1        0.0206
     36 C         139.4894  143.0962  162.0208 C.ar    1  UNL1        0.0374
     37 C         138.0878  143.5395  162.3193 C.ar    1  UNL1        0.0031
     38 C         137.6845  143.8521  163.7298 C.ar    1  UNL1        0.0016
     39 C         138.6827  143.7215  164.8419 C.ar    1  UNL1        0.0191
     40 C         140.0843  143.2782  164.5433 C.ar    1  UNL1        0.0810
     41 N         141.0825  143.1475  165.6553 N.ar    1  UNL1       -0.2497
@<TRIPOS>BOND
     1    31    32    1
     2    32    33   ar
     3    33    34   ar
     4    34    35   ar
     5    35    36   ar
     6    36    25    1
     7    25    26   ar
     8    26    27   ar
     9    27    28   ar
    10    28    24    1
    11    24    23    1
    12    23    22    1
    13    22     1    1
    14     1     2    1
    15     1     3    1
    16     3     4    1
    17     4     5    1
    18     5     6    1
    19     6     7   ar
    20     7     8   ar
    21     8     9   ar
    22     9    10   ar
    23    10    18    1
    24    18    19    1
    25    18    20    1
    26    18    21    1
    27    10    11   ar
    28    11    12   ar
    29    12    13   ar
    30    13    14    1
    31    13    15   ar
    32    15    16    1
    33    16    17    1
    34    28    29   ar
    35    29    30    1
    36    36    37   ar
    37    37    38   ar
    38    38    39   ar
    39    39    40   ar
    40    40    41   ar
    41    41    32   ar
    42    40    35   ar
    43    29    25   ar
    44    17     3    1
    45    15     6   ar
    46    12     8   ar
@<TRIPOS>MOLECULE
*****
 41 46 0 0 0
SMALL
GASTEIGER

@<TRIPOS>ATOM
      1 C         143.9459  141.8174  158.3167 C.3     1  UNL1        0.0584
      2 C         144.6920  140.7895  157.5187 C.3     1  UNL1        0.0174
      3 N         143.7175  141.6069  159.7842 N.3     1  UNL1       -0.2733
      4 C         143.1053  140.2916  160.1653 C.3     1  UNL1        0.0768
      5 C         142.7558  139.7840  161.5330 C.3     1  UNL1        0.0434
      6 C         142.9323  140.4663  162.8570 C.ar    1  UNL1       -0.0225
      7 C         142.4497  139.6047  163.9861 C.ar    1  UNL1        0.0178
      8 C         142.5366  140.1016  165.3988 C.ar    1  UNL1        0.1190
      9 N         142.1434  139.4816  166.7068 N.ar    1  UNL1       -0.2050
     10 C         142.4698  140.4568  167.7988 C.ar    1  UNL1        0.3031
     11 O         143.0648  141.6795  167.1656 O.2     1  UNL1       -0.4312
     12 C         143.1061  141.4600  165.6824 C.ar    1  UNL1        0.1704
     13 C         143.5887  142.3216  164.5533 C.ar    1  UNL1        0.0664
     14 BR        144.1581  143.6799  164.8369 Br      1  UNL1       -0.0461
     15 C         143.5018  141.8247  163.1407 C.ar    1  UNL1       -0.0154
     16 C         144.0354  142.8363  162.1702 C.3     1  UNL1        0.0439
     17 C         144.1314  142.7393  160.6764 C.3     1  UNL1        0.0768
     18 C         142.2414  140.2462  169.2663 C.3     1  UNL1        0.4696
     19 F         142.0129  140.0356  170.7337 F       1  UNL1       -0.1619
     20 F         143.5149  140.9784  169.5696 F       1  UNL1       -0.1619
     21 F         140.9679  139.5140  168.9630 F       1  UNL1       -0.1619
     22 C         143.4282  143.0559  157.6472 C.3     1  UNL1        0.0280
     23 C         142.2279  142.9781  156.7509 C.3     1  UNL1        0.0665
     24 S         140.8632  143.2761  157.2974 S.3     1  UNL1       -0.0756
     25 C         140.0958  142.5664  161.0354 C.ar    1  UNL1        0.1669
     26 N         139.5962  141.3065  160.3927 N.ar    1  UNL1       -0.1282
     27 N         139.8228  141.4190  158.9141 N.ar    1  UNL1       -0.1221
     28 C         140.4626  142.7484  158.6431 C.ar    1  UNL1        0.1932
     29 N         140.6313  143.4575  159.9542 N.ar    1  UNL1       -0.2884
     30 C         141.2303  144.8188  160.1495 C.3     1  UNL1        0.1340
     31 C         138.1112  138.7676  166.4094 C.3     1  UNL1        0.0521
     32 C         138.5997  139.7956  165.4325 C.ar    1  UNL1        0.0593
     33 C         138.6301  139.4820  163.9660 C.ar    1  UNL1        0.0147
     34 C         139.1187  140.5101  162.9891 C.ar    1  UNL1        0.0028
     35 C         139.5768  141.8519  163.4788 C.ar    1  UNL1        0.0206
     36 C         140.0654  142.8801  162.5019 C.ar    1  UNL1        0.0374
     37 C         140.5235  144.2218  162.9915 C.ar    1  UNL1        0.0031
     38 C         140.4931  144.5355  164.4581 C.ar    1  UNL1        0.0016
     39 C         140.0045  143.5074  165.4350 C.ar    1  UNL1        0.0191
     40 C         139.5464  142.1656  164.9453 C.ar    1  UNL1        0.0810
     41 N         139.0578  141.1374  165.9222 N.ar    1  UNL1       -0.2497
@<TRIPOS>BOND
     1    31    32    1
     2    32    33   ar
     3    33    34   ar
     4    34    35   ar
     5    35    36   ar
     6    36    25    1
     7    25    26   ar
     8    26    27   ar
     9    27    28   ar
    10    28    24    1
    11    24    23    1
    12    23    22    1
    13    22     1    1
    14     1     2    1
    15     1     3    1
    16     3     4    1
    17     4     5    1
    18     5     6    1
    19     6     7   ar
    20     7     8   ar
    21     8     9   ar
    22     9    10   ar
    23    10    18    1
    24    18    19    1
    25    18    20    1
    26    18    21    1
    27    10    11   ar
    28    11    12   ar
    29    12    13   ar
    30    13    14    1
    31    13    15   ar
    32    15    16    1
    33    16    17    1
    34    28    29   ar
    35    29    30    1
    36    36    37   ar
    37    37    38   ar
    38    38    39   ar
    39    39    40   ar
    40    40    41   ar
    41    41    32   ar
    42    40    35   ar
    43    29    25   ar
    44    17     3    1
    45    15     6   ar
    46    12     8   ar
@<TRIPOS>MOLECULE
*****
 41 46 0 0 0
SMALL
GASTEIGER

@<TRIPOS>ATOM
      1 C         143.7586  142.3104  158.7134 C.3     1  UNL1        0.0584
      2 C         144.4432  141.2831  157.8614 C.3     1  UNL1        0.0174
      3 N         143.5809  142.0682  160.1830 N.3     1  UNL1       -0.2733
      4 C         143.8392  143.2480  161.0728 C.3     1  UNL1        0.0768
      5 C         143.7488  143.3292  162.5680 C.3     1  UNL1        0.0434
      6 C         143.3779  142.2509  163.5424 C.ar    1  UNL1       -0.0225
      7 C         143.4101  142.7542  164.9551 C.ar    1  UNL1        0.0178
      8 C         143.0702  141.8316  166.0879 C.ar    1  UNL1        0.1190
      9 N         143.0162  142.0420  167.5721 N.ar    1  UNL1       -0.2050
     10 C         142.6107  140.7461  168.2095 C.ar    1  UNL1        0.3031
     11 O         142.4140  139.7349  167.1193 O.2     1  UNL1       -0.4312
     12 C         142.6980  140.4057  165.8081 C.ar    1  UNL1        0.1704
     13 C         142.6657  139.9024  164.3954 C.ar    1  UNL1        0.0664
     14 BR        142.2935  138.4766  164.1155 Br      1  UNL1       -0.0461
     15 C         143.0057  140.8250  163.2626 C.ar    1  UNL1       -0.0154
     16 C         142.9125  140.1253  161.9391 C.3     1  UNL1        0.0439
     17 C         143.1685  140.6786  160.5685 C.3     1  UNL1        0.0768
     18 C         142.4330  140.5041  169.6792 C.3     1  UNL1        0.4696
     19 F         142.2554  140.2620  171.1487 F       1  UNL1       -0.1619
     20 F         141.1531  139.7719  169.4039 F       1  UNL1       -0.1619
     21 F         143.7129  141.2362  169.9545 F       1  UNL1       -0.1619
     22 C         143.2516  143.5799  158.0959 C.3     1  UNL1        0.0280
     23 C         142.1073  143.5379  157.1270 C.3     1  UNL1        0.0665
     24 S         140.6957  143.6039  157.6301 S.3     1  UNL1       -0.0756
     25 C         139.9395  142.5863  161.2986 C.ar    1  UNL1        0.1669
     26 N         139.6064  141.3174  160.5713 N.ar    1  UNL1       -0.1282
     27 N         139.8492  141.5442  159.1085 N.ar    1  UNL1       -0.1221
     28 C         140.3323  142.9532  158.9318 C.ar    1  UNL1        0.1932
     29 N         140.3881  143.5973  160.2854 N.ar    1  UNL1       -0.2884
     30 C         140.8172  145.0052  160.5747 C.3     1  UNL1        0.1340
     31 C         138.1334  138.3131  166.3709 C.3     1  UNL1        0.0521
     32 C         138.5604  139.4362  165.4729 C.ar    1  UNL1        0.0593
     33 C         138.6587  139.2168  163.9923 C.ar    1  UNL1        0.0147
     34 C         139.0856  140.3400  163.0944 C.ar    1  UNL1        0.0028
     35 C         139.4143  141.6826  163.6771 C.ar    1  UNL1        0.0206
     36 C         139.8412  142.8057  162.7792 C.ar    1  UNL1        0.0374
     37 C         140.1699  144.1483  163.3618 C.ar    1  UNL1        0.0031
     38 C         140.0716  144.3677  164.8425 C.ar    1  UNL1        0.0016
     39 C         139.6447  143.2445  165.7404 C.ar    1  UNL1        0.0191
     40 C         139.3160  141.9019  165.1577 C.ar    1  UNL1        0.0810
     41 N         138.8890  140.7788  166.0556 N.ar    1  UNL1       -0.2497
@<TRIPOS>BOND
     1    31    32    1
     2    32    33   ar
     3    33    34   ar
     4    34    35   ar
     5    35    36   ar
     6    36    25    1
     7    25    26   ar
     8    26    27   ar
     9    27    28   ar
    10    28    24    1
    11    24    23    1
    12    23    22    1
    13    22     1    1
    14     1     2    1
    15     1     3    1
    16     3     4    1
    17     4     5    1
    18     5     6    1
    19     6     7   ar
    20     7     8   ar
    21     8     9   ar
    22     9    10   ar
    23    10    18    1
    24    18    19    1
    25    18    20    1
    26    18    21    1
    27    10    11   ar
    28    11    12   ar
    29    12    13   ar
    30    13    14    1
    31    13    15   ar
    32    15    16    1
    33    16    17    1
    34    28    29   ar
    35    29    30    1
    36    36    37   ar
    37    37    38   ar
    38    38    39   ar
    39    39    40   ar
    40    40    41   ar
    41    41    32   ar
    42    40    35   ar
    43    29    25   ar
    44    17     3    1
    45    15     6   ar
    46    12     8   ar
@<TRIPOS>MOLECULE
*****
 41 46 0 0 0
SMALL
GASTEIGER

@<TRIPOS>ATOM
      1 C         141.3469  144.6033  159.3101 C.3     1  UNL1        0.0584
      2 C         140.3276  145.5983  158.8402 C.3     1  UNL1        0.0174
      3 N         141.3870  144.1950  160.7529 N.3     1  UNL1       -0.2733
      4 C         140.0538  143.9715  161.4033 C.3     1  UNL1        0.0768
      5 C         139.7594  143.5621  162.8160 C.3     1  UNL1        0.0434
      6 C         140.7252  143.2750  163.9271 C.ar    1  UNL1       -0.0225
      7 C         140.0104  142.8957  165.1902 C.ar    1  UNL1        0.0178
      8 C         140.7945  142.5679  166.4262 C.ar    1  UNL1        0.1190
      9 N         140.3694  142.1638  167.8067 N.ar    1  UNL1       -0.2050
     10 C         141.6056  141.9654  168.6329 C.ar    1  UNL1        0.3031
     11 O         142.7946  142.2470  167.7630 O.2     1  UNL1       -0.4312
     12 C         142.2934  142.6194  166.3992 C.ar    1  UNL1        0.1704
     13 C         143.0082  142.9987  165.1361 C.ar    1  UNL1        0.0664
     14 BR        144.5070  143.0501  165.1091 Br      1  UNL1       -0.0461
     15 C         142.2241  143.3265  163.9001 C.ar    1  UNL1       -0.0154
     16 C         143.1273  143.6777  162.7552 C.3     1  UNL1        0.0439
     17 C         142.7547  144.0643  161.3546 C.3     1  UNL1        0.0768
     18 C         141.6456  141.5572  170.0758 C.3     1  UNL1        0.4696
     19 F         141.6856  141.1490  171.5186 F       1  UNL1       -0.1619
     20 F         142.4144  142.8020  170.4067 F       1  UNL1       -0.1619
     21 F         140.8768  140.3125  169.7449 F       1  UNL1       -0.1619
     22 C         142.3262  144.0164  158.3372 C.3     1  UNL1        0.0280
     23 C         141.8580  143.0419  157.2974 C.3     1  UNL1        0.0665
     24 S         141.8475  141.5723  157.5974 S.3     1  UNL1       -0.0756
     25 C         141.4420  140.3255  161.2507 C.ar    1  UNL1        0.1669
     26 N         140.0142  140.3461  160.7913 N.ar    1  UNL1       -0.1282
     27 N         139.9923  140.8157  159.3668 N.ar    1  UNL1       -0.1221
     28 C         141.4066  141.0853  158.9459 C.ar    1  UNL1        0.1932
     29 N         142.3025  140.7823  160.1102 N.ar    1  UNL1       -0.2884
     30 C         143.7967  140.9132  160.1303 C.3     1  UNL1        0.1340
     31 C         137.9732  138.8192  166.9908 C.3     1  UNL1        0.0521
     32 C         138.9609  139.0943  165.8960 C.ar    1  UNL1        0.0593
     33 C         138.4784  139.5004  164.5350 C.ar    1  UNL1        0.0147
     34 C         139.4663  139.7754  163.4402 C.ar    1  UNL1        0.0028
     35 C         140.9367  139.6444  163.7065 C.ar    1  UNL1        0.0206
     36 C         141.9245  139.9194  162.6117 C.ar    1  UNL1        0.0374
     37 C         143.3949  139.7884  162.8778 C.ar    1  UNL1        0.0031
     38 C         143.8774  139.3822  164.2388 C.ar    1  UNL1        0.0016
     39 C         142.8895  139.1072  165.3336 C.ar    1  UNL1        0.0191
     40 C         141.4191  139.2383  165.0674 C.ar    1  UNL1        0.0810
     41 N         140.4313  138.9632  166.1622 N.ar    1  UNL1       -0.2497
@<TRIPOS>BOND
     1    31    32    1
     2    32    33   ar
     3    33    34   ar
     4    34    35   ar
     5    35    36   ar
     6    36    25    1
     7    25    26   ar
     8    26    27   ar
     9    27    28   ar
    10    28    24    1
    11    24    23    1
    12    23    22    1
    13    22     1    1
    14     1     2    1
    15     1     3    1
    16     3     4    1
    17     4     5    1
    18     5     6    1
    19     6     7   ar
    20     7     8   ar
    21     8     9   ar
    22     9    10   ar
    23    10    18    1
    24    18    19    1
    25    18    20    1
    26    18    21    1
    27    10    11   ar
    28    11    12   ar
    29    12    13   ar
    30    13    14    1
    31    13    15   ar
    32    15    16    1
    33    16    17    1
    34    28    29   ar
    35    29    30    1
    36    36    37   ar
    37    37    38   ar
    38    38    39   ar
    39    39    40   ar
    40    40    41   ar
    41    41    32   ar
    42    40    35   ar
    43    29    25   ar
    44    17     3    1
    45    15     6   ar
    46    12     8   ar
