@<TRIPOS>MOLECULE
*****
 35 40 0 0 0
SMALL
GASTEIGER

@<TRIPOS>ATOM
      1 C         141.0038  141.6248  166.7678 C.ar    1  UNL1        0.0844
      2 N         140.8966  141.8612  168.2452 N.ar    1  UNL1       -0.2240
      3 C         140.0072  140.9898  169.0815 C.ar    1  UNL1        0.1988
      4 N         139.2249  139.8820  168.4405 N.ar    1  UNL1       -0.2240
      5 C         139.3322  139.6456  166.9632 C.ar    1  UNL1        0.0845
      6 C         138.5499  138.5378  166.3222 C.ar    1  UNL1        0.0192
      7 C         138.6571  138.3014  164.8448 C.ar    1  UNL1        0.0016
      8 C         139.5466  139.1729  164.0084 C.ar    1  UNL1        0.0016
      9 C         140.3288  140.2807  164.6494 C.ar    1  UNL1        0.0030
     10 C         140.2216  140.5170  166.1268 C.ar    1  UNL1        0.0354
     11 C         139.6538  138.9365  162.5311 C.ar    1  UNL1        0.0192
     12 C         138.4299  139.0183  161.6676 C.ar    1  UNL1        0.0988
     13 N         138.5371  138.7819  160.1903 N.ar    1  UNL1       -0.2438
     14 C         139.8682  138.4637  159.5763 C.ar    1  UNL1        0.0813
     15 C         139.9754  138.2273  158.0990 C.ar    1  UNL1        0.0191
     16 C         141.3064  137.9090  157.4850 C.ar    1  UNL1        0.0015
     17 C         142.5303  137.8271  158.3483 C.ar    1  UNL1        0.0001
     18 C         142.4231  138.0635  159.8257 C.ar    1  UNL1        0.0015
     19 C         141.0920  138.3818  160.4397 C.ar    1  UNL1        0.0177
     20 C         140.9849  138.6182  161.9171 C.ar    1  UNL1        0.0030
     21 C         142.2216  144.0907  163.9066 C.ar    1  UNL1        0.0536
     22 C         143.6722  144.2391  164.2586 C.ar    1  UNL1        0.0045
     23 C         144.2333  143.5160  165.4470 C.ar    1  UNL1        0.0002
     24 C         143.3438  142.6446  166.2834 C.ar    1  UNL1        0.0015
     25 C         141.8933  142.4963  165.9314 C.ar    1  UNL1        0.0179
     26 C         141.3322  143.2193  164.7430 C.ar    1  UNL1        0.0060
     27 C         143.1628  143.0872  157.1719 C.3     1  UNL1        0.0897
     28 N         142.7872  143.5188  158.5584 N.3     1  UNL1       -0.2686
     29 C         143.3483  142.7958  159.7468 C.3     1  UNL1        0.0939
     30 C         142.9728  143.2274  161.1334 C.3     1  UNL1        0.1110
     31 N         142.0360  144.3821  161.3316 N.am    1  UNL1       -0.2732
     32 C         141.6604  144.8137  162.7182 C.2     1  UNL1        0.2491
     33 O         140.7237  145.9685  162.9164 O.2     1  UNL1       -0.2699
     34 C         141.4749  145.1052  160.1432 C.3     1  UNL1        0.1110
     35 C         141.8505  144.6735  158.7566 C.3     1  UNL1        0.0939
@<TRIPOS>BOND
     1    27    28    1
     2    28    29    1
     3    29    30    1
     4    30    31    1
     5    31    32   am
     6    32    33    2
     7    32    21    1
     8    21    22   ar
     9    22    23   ar
    10    23    24   ar
    11    24    25   ar
    12    25     1    1
    13     1     2   ar
    14     2     3   ar
    15     3     4   ar
    16     4     5   ar
    17     5     6   ar
    18     6     7   ar
    19     7     8   ar
    20     8    11    1
    21    11    12   ar
    22    12    13   ar
    23    13    14   ar
    24    14    15   ar
    25    15    16   ar
    26    16    17   ar
    27    17    18   ar
    28    18    19   ar
    29    19    20   ar
    30     8     9   ar
    31     9    10   ar
    32    25    26   ar
    33    31    34    1
    34    34    35    1
    35    35    28    1
    36    26    21   ar
    37    10     1   ar
    38    10     5   ar
    39    20    11   ar
    40    19    14   ar
@<TRIPOS>MOLECULE
*****
 35 40 0 0 0
SMALL
GASTEIGER

@<TRIPOS>ATOM
      1 C         141.4580  141.6570  167.0622 C.ar    1  UNL1        0.0844
      2 N         141.7687  141.6096  168.5289 N.ar    1  UNL1       -0.2240
      3 C         140.9567  140.7373  169.4397 C.ar    1  UNL1        0.1988
      4 N         139.8340  139.9123  168.8838 N.ar    1  UNL1       -0.2240
      5 C         139.5233  139.9596  167.4171 C.ar    1  UNL1        0.0845
      6 C         138.4006  139.1347  166.8612 C.ar    1  UNL1        0.0192
      7 C         138.0900  139.1820  165.3945 C.ar    1  UNL1        0.0016
      8 C         138.9020  140.0544  164.4836 C.ar    1  UNL1        0.0016
      9 C         140.0247  140.8794  165.0395 C.ar    1  UNL1        0.0030
     10 C         140.3353  140.8320  166.5063 C.ar    1  UNL1        0.0354
     11 C         138.5913  140.1018  163.0170 C.ar    1  UNL1        0.0192
     12 C         138.0153  138.8974  162.3330 C.ar    1  UNL1        0.0988
     13 N         137.7046  138.9447  160.8663 N.ar    1  UNL1       -0.2438
     14 C         137.9700  140.1965  160.0835 C.ar    1  UNL1        0.0813
     15 C         137.6593  140.2438  158.6169 C.ar    1  UNL1        0.0191
     16 C         137.9246  141.4956  157.8340 C.ar    1  UNL1        0.0015
     17 C         138.5006  142.6999  158.5179 C.ar    1  UNL1        0.0001
     18 C         138.8112  142.6525  159.9846 C.ar    1  UNL1        0.0015
     19 C         138.5459  141.4008  160.7674 C.ar    1  UNL1        0.0177
     20 C         138.8566  141.3535  162.2342 C.ar    1  UNL1        0.0030
     21 C         142.4335  144.0628  164.0604 C.ar    1  UNL1        0.0536
     22 C         143.8940  144.2741  164.3295 C.ar    1  UNL1        0.0045
     23 C         144.5425  143.6130  165.5096 C.ar    1  UNL1        0.0002
     24 C         143.7304  142.7406  166.4204 C.ar    1  UNL1        0.0015
     25 C         142.2700  142.5294  166.1513 C.ar    1  UNL1        0.0179
     26 C         141.6215  143.1904  164.9713 C.ar    1  UNL1        0.0060
     27 C         143.2299  143.0126  157.3141 C.3     1  UNL1        0.0897
     28 N         142.8687  143.4404  158.7057 N.3     1  UNL1       -0.2686
     29 C         143.5171  142.7793  159.8857 C.3     1  UNL1        0.0939
     30 C         143.1559  143.2071  161.2772 C.3     1  UNL1        0.1110
     31 N         142.1462  144.2961  161.4888 N.am    1  UNL1       -0.2732
     32 C         141.7850  144.7239  162.8804 C.2     1  UNL1        0.2491
     33 O         140.7752  145.8128  163.0920 O.2     1  UNL1       -0.2699
     34 C         141.4977  144.9572  160.3088 C.3     1  UNL1        0.1110
     35 C         141.8590  144.5293  158.9172 C.3     1  UNL1        0.0939
@<TRIPOS>BOND
     1    27    28    1
     2    28    29    1
     3    29    30    1
     4    30    31    1
     5    31    32   am
     6    32    33    2
     7    32    21    1
     8    21    22   ar
     9    22    23   ar
    10    23    24   ar
    11    24    25   ar
    12    25     1    1
    13     1     2   ar
    14     2     3   ar
    15     3     4   ar
    16     4     5   ar
    17     5     6   ar
    18     6     7   ar
    19     7     8   ar
    20     8    11    1
    21    11    12   ar
    22    12    13   ar
    23    13    14   ar
    24    14    15   ar
    25    15    16   ar
    26    16    17   ar
    27    17    18   ar
    28    18    19   ar
    29    19    20   ar
    30     8     9   ar
    31     9    10   ar
    32    25    26   ar
    33    31    34    1
    34    34    35    1
    35    35    28    1
    36    26    21   ar
    37    10     1   ar
    38    10     5   ar
    39    20    11   ar
    40    19    14   ar
@<TRIPOS>MOLECULE
*****
 35 40 0 0 0
SMALL
GASTEIGER

@<TRIPOS>ATOM
      1 C         138.3443  140.6183  162.0160 C.ar    1  UNL1        0.0844
      2 N         137.5379  140.0330  160.8948 N.ar    1  UNL1       -0.2240
      3 C         137.2209  138.5669  160.8848 C.ar    1  UNL1        0.1988
      4 N         137.7103  137.6862  161.9961 N.ar    1  UNL1       -0.2240
      5 C         138.5167  138.2715  163.1172 C.ar    1  UNL1        0.0845
      6 C         139.0061  137.3908  164.2284 C.ar    1  UNL1        0.0192
      7 C         139.8125  137.9762  165.3496 C.ar    1  UNL1        0.0016
      8 C         140.1295  139.4423  165.3596 C.ar    1  UNL1        0.0016
      9 C         139.6401  140.3230  164.2484 C.ar    1  UNL1        0.0030
     10 C         138.8337  139.7376  163.1272 C.ar    1  UNL1        0.0354
     11 C         140.9359  140.0276  166.4808 C.ar    1  UNL1        0.0192
     12 C         142.2335  139.3916  166.8830 C.ar    1  UNL1        0.0988
     13 N         143.0399  139.9769  168.0042 N.ar    1  UNL1       -0.2438
     14 C         142.5488  141.1983  168.7232 C.ar    1  UNL1        0.0813
     15 C         143.3551  141.7837  169.8444 C.ar    1  UNL1        0.0191
     16 C         142.8640  143.0051  170.5633 C.ar    1  UNL1        0.0015
     17 C         141.5665  143.6412  170.1611 C.ar    1  UNL1        0.0001
     18 C         140.7601  143.0558  169.0400 C.ar    1  UNL1        0.0015
     19 C         141.2512  141.8344  168.3210 C.ar    1  UNL1        0.0177
     20 C         140.4448  141.2491  167.1998 C.ar    1  UNL1        0.0030
     21 C         140.1369  144.0727  161.2390 C.ar    1  UNL1        0.0536
     22 C         139.2954  145.0166  162.0459 C.ar    1  UNL1        0.0045
     23 C         138.1368  144.4944  162.8428 C.ar    1  UNL1        0.0002
     24 C         137.8198  143.0282  162.8328 C.ar    1  UNL1        0.0015
     25 C         138.6613  142.0844  162.0259 C.ar    1  UNL1        0.0179
     26 C         139.8198  142.6067  161.2290 C.ar    1  UNL1        0.0060
     27 C         140.6437  145.7187  154.5844 C.3     1  UNL1        0.0897
     28 N         140.8066  145.4378  156.0488 N.3     1  UNL1       -0.2686
     29 C         139.6481  144.9156  156.8457 C.3     1  UNL1        0.0939
     30 C         139.8110  144.6346  158.3101 C.3     1  UNL1        0.1110
     31 N         141.1325  144.8759  158.9777 N.am    1  UNL1       -0.2732
     32 C         141.2954  144.5950  160.4420 C.2     1  UNL1        0.2491
     33 O         142.6169  144.8363  161.1096 O.2     1  UNL1       -0.2699
     34 C         142.2910  145.3982  158.1807 C.3     1  UNL1        0.1110
     35 C         142.1280  145.6791  156.7163 C.3     1  UNL1        0.0939
@<TRIPOS>BOND
     1    27    28    1
     2    28    29    1
     3    29    30    1
     4    30    31    1
     5    31    32   am
     6    32    33    2
     7    32    21    1
     8    21    22   ar
     9    22    23   ar
    10    23    24   ar
    11    24    25   ar
    12    25     1    1
    13     1     2   ar
    14     2     3   ar
    15     3     4   ar
    16     4     5   ar
    17     5     6   ar
    18     6     7   ar
    19     7     8   ar
    20     8    11    1
    21    11    12   ar
    22    12    13   ar
    23    13    14   ar
    24    14    15   ar
    25    15    16   ar
    26    16    17   ar
    27    17    18   ar
    28    18    19   ar
    29    19    20   ar
    30     8     9   ar
    31     9    10   ar
    32    25    26   ar
    33    31    34    1
    34    34    35    1
    35    35    28    1
    36    26    21   ar
    37    10     1   ar
    38    10     5   ar
    39    20    11   ar
    40    19    14   ar
@<TRIPOS>MOLECULE
*****
 35 40 0 0 0
SMALL
GASTEIGER

@<TRIPOS>ATOM
      1 C         140.6237  142.1269  165.8600 C.ar    1  UNL1        0.0844
      2 N         140.5924  142.6307  167.2724 N.ar    1  UNL1       -0.2240
      3 C         141.4904  142.0195  168.3068 C.ar    1  UNL1        0.1988
      4 N         142.4198  140.9045  167.9286 N.ar    1  UNL1       -0.2240
      5 C         142.4511  140.4007  166.5161 C.ar    1  UNL1        0.0845
      6 C         143.3804  139.2856  166.1379 C.ar    1  UNL1        0.0192
      7 C         143.4117  138.7818  164.7255 C.ar    1  UNL1        0.0016
      8 C         142.5136  139.3931  163.6911 C.ar    1  UNL1        0.0016
      9 C         141.5843  140.5081  164.0692 C.ar    1  UNL1        0.0030
     10 C         141.5530  141.0119  165.4818 C.ar    1  UNL1        0.0354
     11 C         142.5449  138.8892  162.2786 C.ar    1  UNL1        0.0192
     12 C         143.7792  138.2227  161.7472 C.ar    1  UNL1        0.0988
     13 N         143.8105  137.7189  160.3347 N.ar    1  UNL1       -0.2438
     14 C         142.6075  137.8816  159.4535 C.ar    1  UNL1        0.0813
     15 C         142.6388  137.3778  158.0411 C.ar    1  UNL1        0.0191
     16 C         141.4359  137.5405  157.1599 C.ar    1  UNL1        0.0015
     17 C         140.2016  138.2070  157.6912 C.ar    1  UNL1        0.0001
     18 C         140.1703  138.7108  159.1037 C.ar    1  UNL1        0.0015
     19 C         141.3733  138.5481  159.9849 C.ar    1  UNL1        0.0177
     20 C         141.3420  139.0519  161.3974 C.ar    1  UNL1        0.0030
     21 C         139.4006  144.2535  162.7404 C.ar    1  UNL1        0.0536
     22 C         137.9295  143.9606  162.7568 C.ar    1  UNL1        0.0045
     23 C         137.3565  143.0565  163.8076 C.ar    1  UNL1        0.0002
     24 C         138.2546  142.4453  164.8420 C.ar    1  UNL1        0.0015
     25 C         139.7256  142.7382  164.8256 C.ar    1  UNL1        0.0179
     26 C         140.2986  143.6423  163.7747 C.ar    1  UNL1        0.0060
     27 C         142.4936  142.8213  156.7712 C.3     1  UNL1        0.0897
     28 N         141.8636  143.4053  158.0007 N.3     1  UNL1       -0.2686
     29 C         141.2906  142.5012  159.0516 C.3     1  UNL1        0.0939
     30 C         140.6606  143.0853  160.2811 C.3     1  UNL1        0.1110
     31 N         140.6036  144.5736  160.4600 N.am    1  UNL1       -0.2732
     32 C         139.9736  145.1576  161.6895 C.2     1  UNL1        0.2491
     33 O         139.9166  146.6459  161.8683 O.2     1  UNL1       -0.2699
     34 C         141.1766  145.4777  159.4091 C.3     1  UNL1        0.1110
     35 C         141.8066  144.8935  158.1795 C.3     1  UNL1        0.0939
@<TRIPOS>BOND
     1    27    28    1
     2    28    29    1
     3    29    30    1
     4    30    31    1
     5    31    32   am
     6    32    33    2
     7    32    21    1
     8    21    22   ar
     9    22    23   ar
    10    23    24   ar
    11    24    25   ar
    12    25     1    1
    13     1     2   ar
    14     2     3   ar
    15     3     4   ar
    16     4     5   ar
    17     5     6   ar
    18     6     7   ar
    19     7     8   ar
    20     8    11    1
    21    11    12   ar
    22    12    13   ar
    23    13    14   ar
    24    14    15   ar
    25    15    16   ar
    26    16    17   ar
    27    17    18   ar
    28    18    19   ar
    29    19    20   ar
    30     8     9   ar
    31     9    10   ar
    32    25    26   ar
    33    31    34    1
    34    34    35    1
    35    35    28    1
    36    26    21   ar
    37    10     1   ar
    38    10     5   ar
    39    20    11   ar
    40    19    14   ar
@<TRIPOS>MOLECULE
*****
 35 40 0 0 0
SMALL
GASTEIGER

@<TRIPOS>ATOM
      1 C         140.7315  141.4285  166.6178 C.ar    1  UNL1        0.0844
      2 N         140.4588  141.3208  168.0889 N.ar    1  UNL1       -0.2240
      3 C         141.2712  140.3866  168.9357 C.ar    1  UNL1        0.1988
      4 N         142.3562  139.5600  168.3116 N.ar    1  UNL1       -0.2240
      5 C         142.6288  139.6677  166.8405 C.ar    1  UNL1        0.0845
      6 C         143.7139  138.8412  166.2164 C.ar    1  UNL1        0.0192
      7 C         143.9865  138.9489  164.7453 C.ar    1  UNL1        0.0016
      8 C         143.1741  139.8831  163.8983 C.ar    1  UNL1        0.0016
      9 C         142.0891  140.7097  164.5225 C.ar    1  UNL1        0.0030
     10 C         141.8165  140.6019  165.9936 C.ar    1  UNL1        0.0354
     11 C         143.4468  139.9908  162.4273 C.ar    1  UNL1        0.0192
     12 C         143.7506  138.7580  161.6286 C.ar    1  UNL1        0.0988
     13 N         144.0233  138.8656  160.1576 N.ar    1  UNL1       -0.2438
     14 C         143.9921  140.2061  159.4851 C.ar    1  UNL1        0.0813
     15 C         144.2648  140.3138  158.0141 C.ar    1  UNL1        0.0191
     16 C         144.2336  141.6543  157.3417 C.ar    1  UNL1        0.0015
     17 C         143.9297  142.8871  158.1403 C.ar    1  UNL1        0.0001
     18 C         143.6571  142.7794  159.6113 C.ar    1  UNL1        0.0015
     19 C         143.6883  141.4389  160.2838 C.ar    1  UNL1        0.0177
     20 C         143.4156  141.3313  161.7549 C.ar    1  UNL1        0.0030
     21 C         138.6326  142.8608  163.5693 C.ar    1  UNL1        0.0536
     22 C         138.2944  144.2312  164.0769 C.ar    1  UNL1        0.0045
     23 C         138.7685  144.6673  165.4315 C.ar    1  UNL1        0.0002
     24 C         139.5809  143.7331  166.2785 C.ar    1  UNL1        0.0015
     25 C         139.9191  142.3627  165.7708 C.ar    1  UNL1        0.0179
     26 C         139.4450  141.9266  164.4162 C.ar    1  UNL1        0.0060
     27 C         140.7145  144.6734  157.2741 C.3     1  UNL1        0.0897
     28 N         140.0755  144.1112  158.5092 N.3     1  UNL1       -0.2686
     29 C         140.5496  144.5473  159.8638 C.3     1  UNL1        0.0939
     30 C         139.9107  143.9852  161.0989 C.3     1  UNL1        0.1110
     31 N         138.7975  142.9868  160.9795 N.am    1  UNL1       -0.2732
     32 C         138.1585  142.4246  162.2147 C.2     1  UNL1        0.2491
     33 O         137.0454  141.4262  162.0952 O.2     1  UNL1       -0.2699
     34 C         138.3234  142.5506  159.6249 C.3     1  UNL1        0.1110
     35 C         138.9624  143.1129  158.3897 C.3     1  UNL1        0.0939
@<TRIPOS>BOND
     1    27    28    1
     2    28    29    1
     3    29    30    1
     4    30    31    1
     5    31    32   am
     6    32    33    2
     7    32    21    1
     8    21    22   ar
     9    22    23   ar
    10    23    24   ar
    11    24    25   ar
    12    25     1    1
    13     1     2   ar
    14     2     3   ar
    15     3     4   ar
    16     4     5   ar
    17     5     6   ar
    18     6     7   ar
    19     7     8   ar
    20     8    11    1
    21    11    12   ar
    22    12    13   ar
    23    13    14   ar
    24    14    15   ar
    25    15    16   ar
    26    16    17   ar
    27    17    18   ar
    28    18    19   ar
    29    19    20   ar
    30     8     9   ar
    31     9    10   ar
    32    25    26   ar
    33    31    34    1
    34    34    35    1
    35    35    28    1
    36    26    21   ar
    37    10     1   ar
    38    10     5   ar
    39    20    11   ar
    40    19    14   ar
@<TRIPOS>MOLECULE
*****
 35 40 0 0 0
SMALL
GASTEIGER

@<TRIPOS>ATOM
      1 C         140.6481  141.8278  166.8863 C.ar    1  UNL1        0.0844
      2 N         140.6109  142.1460  168.3517 N.ar    1  UNL1       -0.2240
      3 C         141.4198  141.3310  169.3168 C.ar    1  UNL1        0.1988
      4 N         142.2658  140.1978  168.8165 N.ar    1  UNL1       -0.2240
      5 C         142.3030  139.8797  167.3511 C.ar    1  UNL1        0.0845
      6 C         143.1490  138.7466  166.8508 C.ar    1  UNL1        0.0192
      7 C         143.1861  138.4284  165.3855 C.ar    1  UNL1        0.0016
      8 C         142.3772  139.2435  164.4203 C.ar    1  UNL1        0.0016
      9 C         141.5312  140.3766  164.9205 C.ar    1  UNL1        0.0030
     10 C         141.4941  140.6947  166.3860 C.ar    1  UNL1        0.0354
     11 C         142.4144  138.9253  162.9549 C.ar    1  UNL1        0.0192
     12 C         143.7060  138.5219  162.3075 C.ar    1  UNL1        0.0988
     13 N         143.7432  138.2038  160.8421 N.ar    1  UNL1       -0.2438
     14 C         142.4888  138.2890  160.0241 C.ar    1  UNL1        0.0813
     15 C         142.5259  137.9709  158.5587 C.ar    1  UNL1        0.0191
     16 C         141.2715  138.0561  157.7407 C.ar    1  UNL1        0.0015
     17 C         139.9799  138.4595  158.3880 C.ar    1  UNL1        0.0001
     18 C         139.9428  138.7776  159.8534 C.ar    1  UNL1        0.0015
     19 C         141.1972  138.6924  160.6714 C.ar    1  UNL1        0.0177
     20 C         141.1600  139.0106  162.1369 C.ar    1  UNL1        0.0030
     21 C         138.5813  142.8551  163.6578 C.ar    1  UNL1        0.0536
     22 C         138.2215  144.2728  163.9907 C.ar    1  UNL1        0.0045
     23 C         138.6705  144.8755  165.2889 C.ar    1  UNL1        0.0002
     24 C         139.4794  144.0605  166.2541 C.ar    1  UNL1        0.0015
     25 C         139.8392  142.6429  165.9211 C.ar    1  UNL1        0.0179
     26 C         139.3902  142.0402  164.6229 C.ar    1  UNL1        0.0060
     27 C         140.5675  144.0956  157.1951 C.3     1  UNL1        0.0897
     28 N         139.9587  143.6349  158.4862 N.3     1  UNL1       -0.2686
     29 C         140.4077  144.2375  159.7844 C.3     1  UNL1        0.0939
     30 C         139.7990  143.7767  161.0755 C.3     1  UNL1        0.1110
     31 N         138.7411  142.7133  161.0685 N.am    1  UNL1       -0.2732
     32 C         138.1323  142.2525  162.3596 C.2     1  UNL1        0.2491
     33 O         137.0744  141.1890  162.3527 O.2     1  UNL1       -0.2699
     34 C         138.2920  142.1106  159.7704 C.3     1  UNL1        0.1110
     35 C         138.9009  142.5714  158.4792 C.3     1  UNL1        0.0939
@<TRIPOS>BOND
     1    27    28    1
     2    28    29    1
     3    29    30    1
     4    30    31    1
     5    31    32   am
     6    32    33    2
     7    32    21    1
     8    21    22   ar
     9    22    23   ar
    10    23    24   ar
    11    24    25   ar
    12    25     1    1
    13     1     2   ar
    14     2     3   ar
    15     3     4   ar
    16     4     5   ar
    17     5     6   ar
    18     6     7   ar
    19     7     8   ar
    20     8    11    1
    21    11    12   ar
    22    12    13   ar
    23    13    14   ar
    24    14    15   ar
    25    15    16   ar
    26    16    17   ar
    27    17    18   ar
    28    18    19   ar
    29    19    20   ar
    30     8     9   ar
    31     9    10   ar
    32    25    26   ar
    33    31    34    1
    34    34    35    1
    35    35    28    1
    36    26    21   ar
    37    10     1   ar
    38    10     5   ar
    39    20    11   ar
    40    19    14   ar
@<TRIPOS>MOLECULE
*****
 35 40 0 0 0
SMALL
GASTEIGER

@<TRIPOS>ATOM
      1 C         141.4783  143.5206  161.3385 C.ar    1  UNL1        0.0844
      2 N         141.3632  144.3568  160.0985 N.ar    1  UNL1       -0.2240
      3 C         140.3625  145.4724  160.0365 C.ar    1  UNL1        0.1988
      4 N         139.4769  145.7519  161.2145 N.ar    1  UNL1       -0.2240
      5 C         139.5920  144.9158  162.4544 C.ar    1  UNL1        0.0845
      6 C         138.7064  145.1953  163.6324 C.ar    1  UNL1        0.0192
      7 C         138.8215  144.3592  164.8724 C.ar    1  UNL1        0.0016
      8 C         139.8222  143.2435  164.9345 C.ar    1  UNL1        0.0016
      9 C         140.7078  142.9640  163.7565 C.ar    1  UNL1        0.0030
     10 C         140.5927  143.8002  162.5165 C.ar    1  UNL1        0.0354
     11 C         139.9373  142.4074  166.1744 C.ar    1  UNL1        0.0192
     12 C         139.5090  140.9699  166.1522 C.ar    1  UNL1        0.0988
     13 N         139.6241  140.1338  167.3922 N.ar    1  UNL1       -0.2438
     14 C         140.1675  140.7351  168.6545 C.ar    1  UNL1        0.0813
     15 C         140.2826  139.8989  169.8944 C.ar    1  UNL1        0.0191
     16 C         140.8260  140.5002  171.1567 C.ar    1  UNL1        0.0015
     17 C         141.2542  141.9375  171.1789 C.ar    1  UNL1        0.0001
     18 C         141.1391  142.7737  169.9390 C.ar    1  UNL1        0.0015
     19 C         140.5958  142.1724  168.6767 C.ar    1  UNL1        0.0177
     20 C         140.4807  143.0086  167.4367 C.ar    1  UNL1        0.0030
     21 C         143.1880  139.9818  160.7878 C.ar    1  UNL1        0.0536
     22 C         144.4804  140.1735  161.5247 C.ar    1  UNL1        0.0045
     23 C         144.7721  141.4810  162.1996 C.ar    1  UNL1        0.0002
     24 C         143.7713  142.5967  162.1375 C.ar    1  UNL1        0.0015
     25 C         142.4790  142.4049  161.4006 C.ar    1  UNL1        0.0179
     26 C         142.1874  141.0975  160.7257 C.ar    1  UNL1        0.0060
     27 C         143.1594  138.2605  154.1330 C.3     1  UNL1        0.0897
     28 N         143.0936  138.3640  155.6279 N.3     1  UNL1       -0.2686
     29 C         143.3853  139.6714  156.3028 C.3     1  UNL1        0.0939
     30 C         143.3195  139.7749  157.7978 C.3     1  UNL1        0.1110
     31 N         142.9621  138.5709  158.6179 N.am    1  UNL1       -0.2732
     32 C         142.8964  138.6743  160.1129 C.2     1  UNL1        0.2491
     33 O         142.5389  137.4703  160.9330 O.2     1  UNL1       -0.2699
     34 C         142.6705  137.2634  157.9431 C.3     1  UNL1        0.1110
     35 C         142.7362  137.1600  156.4480 C.3     1  UNL1        0.0939
@<TRIPOS>BOND
     1    27    28    1
     2    28    29    1
     3    29    30    1
     4    30    31    1
     5    31    32   am
     6    32    33    2
     7    32    21    1
     8    21    22   ar
     9    22    23   ar
    10    23    24   ar
    11    24    25   ar
    12    25     1    1
    13     1     2   ar
    14     2     3   ar
    15     3     4   ar
    16     4     5   ar
    17     5     6   ar
    18     6     7   ar
    19     7     8   ar
    20     8    11    1
    21    11    12   ar
    22    12    13   ar
    23    13    14   ar
    24    14    15   ar
    25    15    16   ar
    26    16    17   ar
    27    17    18   ar
    28    18    19   ar
    29    19    20   ar
    30     8     9   ar
    31     9    10   ar
    32    25    26   ar
    33    31    34    1
    34    34    35    1
    35    35    28    1
    36    26    21   ar
    37    10     1   ar
    38    10     5   ar
    39    20    11   ar
    40    19    14   ar
@<TRIPOS>MOLECULE
*****
 35 40 0 0 0
SMALL
GASTEIGER

@<TRIPOS>ATOM
      1 C         141.5446  140.8917  167.2452 C.ar    1  UNL1        0.0844
      2 N         141.6260  140.9421  168.7421 N.ar    1  UNL1       -0.2240
      3 C         142.6451  141.8179  169.4087 C.ar    1  UNL1        0.1988
      4 N         143.5828  142.6433  168.5784 N.ar    1  UNL1       -0.2240
      5 C         143.5015  142.5929  167.0815 C.ar    1  UNL1        0.0845
      6 C         144.4392  143.4183  166.2512 C.ar    1  UNL1        0.0192
      7 C         144.3578  143.3679  164.7543 C.ar    1  UNL1        0.0016
      8 C         143.3387  142.4921  164.0876 C.ar    1  UNL1        0.0016
      9 C         142.4009  141.6667  164.9179 C.ar    1  UNL1        0.0030
     10 C         142.4824  141.7171  166.4149 C.ar    1  UNL1        0.0354
     11 C         143.2573  142.4417  162.5907 C.ar    1  UNL1        0.0192
     12 C         143.2016  143.7148  161.7993 C.ar    1  UNL1        0.0988
     13 N         143.1202  143.6644  160.3024 N.ar    1  UNL1       -0.2438
     14 C         143.0945  142.3410  159.5968 C.ar    1  UNL1        0.0813
     15 C         143.0131  142.2906  158.0999 C.ar    1  UNL1        0.0191
     16 C         142.9874  140.9672  157.3943 C.ar    1  UNL1        0.0015
     17 C         143.0430  139.6941  158.1856 C.ar    1  UNL1        0.0001
     18 C         143.1244  139.7445  159.6825 C.ar    1  UNL1        0.0015
     19 C         143.1501  141.0680  160.3881 C.ar    1  UNL1        0.0177
     20 C         143.2315  141.1183  161.8851 C.ar    1  UNL1        0.0030
     21 C         139.7750  138.5834  164.5451 C.ar    1  UNL1        0.0536
     22 C         138.4873  138.2643  165.2452 C.ar    1  UNL1        0.0045
     23 C         138.2187  138.8211  166.6119 C.ar    1  UNL1        0.0002
     24 C         139.2378  139.6969  167.2786 C.ar    1  UNL1        0.0015
     25 C         140.5255  140.0159  166.5786 C.ar    1  UNL1        0.0179
     26 C         140.7941  139.4592  165.2118 C.ar    1  UNL1        0.0060
     27 C         137.8704  140.8073  158.3261 C.3     1  UNL1        0.0897
     28 N         138.4137  140.1122  159.5392 N.3     1  UNL1       -0.2686
     29 C         138.1451  140.6689  160.9059 C.3     1  UNL1        0.0939
     30 C         138.6884  139.9738  162.1190 C.3     1  UNL1        0.1110
     31 N         139.5003  138.7219  161.9654 N.am    1  UNL1       -0.2732
     32 C         140.0436  138.0267  163.1784 C.2     1  UNL1        0.2491
     33 O         140.8556  136.7748  163.0248 O.2     1  UNL1       -0.2699
     34 C         139.7689  138.1651  160.5986 C.3     1  UNL1        0.1110
     35 C         139.2256  138.8603  159.3855 C.3     1  UNL1        0.0939
@<TRIPOS>BOND
     1    27    28    1
     2    28    29    1
     3    29    30    1
     4    30    31    1
     5    31    32   am
     6    32    33    2
     7    32    21    1
     8    21    22   ar
     9    22    23   ar
    10    23    24   ar
    11    24    25   ar
    12    25     1    1
    13     1     2   ar
    14     2     3   ar
    15     3     4   ar
    16     4     5   ar
    17     5     6   ar
    18     6     7   ar
    19     7     8   ar
    20     8    11    1
    21    11    12   ar
    22    12    13   ar
    23    13    14   ar
    24    14    15   ar
    25    15    16   ar
    26    16    17   ar
    27    17    18   ar
    28    18    19   ar
    29    19    20   ar
    30     8     9   ar
    31     9    10   ar
    32    25    26   ar
    33    31    34    1
    34    34    35    1
    35    35    28    1
    36    26    21   ar
    37    10     1   ar
    38    10     5   ar
    39    20    11   ar
    40    19    14   ar
@<TRIPOS>MOLECULE
*****
 35 40 0 0 0
SMALL
GASTEIGER

@<TRIPOS>ATOM
      1 C         141.2791  142.1872  166.7338 C.ar    1  UNL1        0.0844
      2 N         141.2691  142.5582  168.1872 N.ar    1  UNL1       -0.2240
      3 C         141.8961  141.6451  169.1986 C.ar    1  UNL1        0.1988
      4 N         142.5332  140.3610  168.7567 N.ar    1  UNL1       -0.2240
      5 C         142.5432  139.9900  167.3033 C.ar    1  UNL1        0.0845
      6 C         143.1802  138.7059  166.8614 C.ar    1  UNL1        0.0192
      7 C         143.1903  138.3349  165.4081 C.ar    1  UNL1        0.0016
      8 C         142.5632  139.2481  164.3966 C.ar    1  UNL1        0.0016
      9 C         141.9261  140.5321  164.8385 C.ar    1  UNL1        0.0030
     10 C         141.9161  140.9031  166.2919 C.ar    1  UNL1        0.0354
     11 C         142.5732  138.8771  162.9432 C.ar    1  UNL1        0.0192
     12 C         143.8263  138.3445  162.3137 C.ar    1  UNL1        0.0988
     13 N         143.8363  137.9735  160.8604 N.ar    1  UNL1       -0.2438
     14 C         142.5933  138.1351  160.0365 C.ar    1  UNL1        0.0813
     15 C         142.6033  137.7641  158.5832 C.ar    1  UNL1        0.0191
     16 C         141.3602  137.9256  157.7593 C.ar    1  UNL1        0.0015
     17 C         140.1072  138.4582  158.3887 C.ar    1  UNL1        0.0001
     18 C         140.0972  138.8292  159.8421 C.ar    1  UNL1        0.0015
     19 C         141.3402  138.6676  160.6659 C.ar    1  UNL1        0.0177
     20 C         141.3302  139.0386  162.1194 C.ar    1  UNL1        0.0030
     21 C         140.6009  144.1104  163.3292 C.ar    1  UNL1        0.0536
     22 C         139.3979  144.9265  163.6993 C.ar    1  UNL1        0.0045
     23 C         138.8220  144.8294  165.0810 C.ar    1  UNL1        0.0002
     24 C         139.4491  143.9163  166.0925 C.ar    1  UNL1        0.0015
     25 C         140.6520  143.1003  165.7223 C.ar    1  UNL1        0.0179
     26 C         141.2279  143.1973  164.3407 C.ar    1  UNL1        0.0060
     27 C         138.3385  141.6394  157.3271 C.3     1  UNL1        0.0897
     28 N         139.0481  142.2814  158.4822 N.3     1  UNL1       -0.2686
     29 C         138.4722  142.1843  159.8639 C.3     1  UNL1        0.0939
     30 C         139.1817  142.8263  161.0190 C.3     1  UNL1        0.1110
     31 N         140.4673  143.5654  160.7925 N.am    1  UNL1       -0.2732
     32 C         141.1768  144.2074  161.9476 C.2     1  UNL1        0.2491
     33 O         142.4624  144.9465  161.7211 O.2     1  UNL1       -0.2699
     34 C         141.0432  143.6625  159.4108 C.3     1  UNL1        0.1110
     35 C         140.3335  143.0204  158.2557 C.3     1  UNL1        0.0939
@<TRIPOS>BOND
     1    27    28    1
     2    28    29    1
     3    29    30    1
     4    30    31    1
     5    31    32   am
     6    32    33    2
     7    32    21    1
     8    21    22   ar
     9    22    23   ar
    10    23    24   ar
    11    24    25   ar
    12    25     1    1
    13     1     2   ar
    14     2     3   ar
    15     3     4   ar
    16     4     5   ar
    17     5     6   ar
    18     6     7   ar
    19     7     8   ar
    20     8    11    1
    21    11    12   ar
    22    12    13   ar
    23    13    14   ar
    24    14    15   ar
    25    15    16   ar
    26    16    17   ar
    27    17    18   ar
    28    18    19   ar
    29    19    20   ar
    30     8     9   ar
    31     9    10   ar
    32    25    26   ar
    33    31    34    1
    34    34    35    1
    35    35    28    1
    36    26    21   ar
    37    10     1   ar
    38    10     5   ar
    39    20    11   ar
    40    19    14   ar
