@<TRIPOS>MOLECULE
*****
 40 43 0 0 0
SMALL
GASTEIGER

@<TRIPOS>ATOM
      1 C         141.2190  142.1249  164.5303 C.3     1  UNL1        0.0798
      2 C         142.0855  142.2711  163.3146 C.ar    1  UNL1        0.0374
      3 C         141.8264  141.4259  162.1028 C.ar    1  UNL1        0.0023
      4 C         142.6929  141.5721  160.8871 C.ar    1  UNL1        0.0181
      5 C         142.4337  140.7269  159.6753 C.ar    1  UNL1        0.0082
      6 C         143.3002  140.8732  158.4597 C.ar    1  UNL1        0.0347
      7 BR        143.0411  140.0280  157.2478 Br      1  UNL1       -0.0490
      8 C         144.4259  141.8646  158.4559 C.ar    1  UNL1        0.0082
      9 C         144.6851  142.7097  159.6677 C.ar    1  UNL1        0.0197
     10 C         143.8186  142.5635  160.8833 C.ar    1  UNL1        0.0844
     11 N         144.0777  143.4087  162.0952 N.ar    1  UNL1       -0.2119
     12 C         143.2112  143.2625  163.3108 C.ar    1  UNL1        0.2211
     13 O         143.4703  144.1077  164.5227 O.3     1  UNL1       -0.4563
     14 C         144.6301  143.7950  165.4210 C.3     1  UNL1        0.2542
     15 C         141.7735  141.4994  165.7757 C.ar    1  UNL1        0.0115
     16 C         141.7165  142.2424  167.0775 C.ar    1  UNL1       -0.0017
     17 C         142.2710  141.6169  168.3230 C.ar    1  UNL1       -0.0005
     18 C         142.8826  140.2483  168.2667 C.ar    1  UNL1       -0.0021
     19 C         142.9395  139.5053  166.9649 C.ar    1  UNL1        0.0053
     20 C         143.5510  138.1368  166.9085 C.3     1  UNL1        0.0334
     21 C         142.3850  140.1309  165.7194 C.ar    1  UNL1        0.1325
     22 F         142.4420  139.3879  164.4176 F       1  UNL1       -0.2048
     23 C         139.7979  142.6042  164.5004 C.3     1  UNL1        0.1162
     24 O         140.2780  144.0192  164.3682 O.3     1  UNL1       -0.3820
     25 H         139.5151  144.6164  164.3215 H       1  UNL1        0.2107
     26 C         138.3830  139.2581  166.0976 C.ar    1  UNL1        0.2272
     27 C         138.8630  140.6730  165.9655 C.ar    1  UNL1        0.0559
     28 C         139.3179  141.1893  164.6326 C.ar    1  UNL1        0.0117
     29 C         139.2927  140.2906  163.4319 C.ar    1  UNL1        0.0559
     30 C         138.8126  138.8756  163.5641 C.ar    1  UNL1        0.2272
     31 N         138.3578  138.3594  164.8970 N.ar    1  UNL1       -0.1767
     32 C         136.9895  137.5740  167.5020 C.3     1  UNL1        0.2542
     33 O         137.9281  138.7418  167.4306 O.3     1  UNL1       -0.4561
     34 O         138.7874  137.9769  162.3633 O.3     1  UNL1       -0.4561
     35 C         139.8267  138.1271  161.2922 C.3     1  UNL1        0.2542
     36 C         138.3769  143.0836  164.4706 C.3     1  UNL1        0.0491
     37 C         137.8861  143.9035  163.3144 C.3     1  UNL1        0.0750
     38 N         138.5344  143.7662  161.9687 N.3     1  UNL1       -0.2702
     39 C         139.5368  144.7842  161.5117 C.3     1  UNL1        0.0897
     40 C         138.1803  142.6108  161.0801 C.3     1  UNL1        0.0897
@<TRIPOS>BOND
     1    32    33    1
     2    33    26    1
     3    26    27   ar
     4    27    28   ar
     5    28    23    1
     6    23    24    1
     7    23    36    1
     8    36    37    1
     9    37    38    1
    10    38    39    1
    11    38    40    1
    12    23     1    1
    13     1     2    1
    14     2     3   ar
    15     3     4   ar
    16     4     5   ar
    17     5     6   ar
    18     6     7    1
    19     6     8   ar
    20     8     9   ar
    21     9    10   ar
    22    10    11   ar
    23    11    12   ar
    24    12    13    1
    25    13    14    1
    26     1    15    1
    27    15    16   ar
    28    16    17   ar
    29    17    18   ar
    30    18    19   ar
    31    19    20    1
    32    19    21   ar
    33    21    22    1
    34    28    29   ar
    35    29    30   ar
    36    30    34    1
    37    34    35    1
    38    30    31   ar
    39    31    26   ar
    40    12     2   ar
    41    21    15   ar
    42    10     4   ar
    43    24    25    1
@<TRIPOS>MOLECULE
*****
 40 43 0 0 0
SMALL
GASTEIGER

@<TRIPOS>ATOM
      1 C         141.2144  142.0222  164.2664 C.3     1  UNL1        0.0798
      2 C         142.0823  142.1669  163.0515 C.ar    1  UNL1        0.0374
      3 C         141.8479  141.2945  161.8541 C.ar    1  UNL1        0.0023
      4 C         142.7158  141.4392  160.6392 C.ar    1  UNL1        0.0181
      5 C         142.4814  140.5667  159.4418 C.ar    1  UNL1        0.0082
      6 C         143.3493  140.7115  158.2270 C.ar    1  UNL1        0.0347
      7 BR        143.1149  139.8390  157.0295 Br      1  UNL1       -0.0490
      8 C         144.4516  141.7286  158.2097 C.ar    1  UNL1        0.0082
      9 C         144.6861  142.6010  159.4071 C.ar    1  UNL1        0.0197
     10 C         143.8182  142.4563  160.6219 C.ar    1  UNL1        0.0844
     11 N         144.0525  143.3287  161.8194 N.ar    1  UNL1       -0.2119
     12 C         143.1846  143.1840  163.0342 C.ar    1  UNL1        0.2211
     13 O         143.4190  144.0565  164.2317 O.3     1  UNL1       -0.4563
     14 C         144.5577  143.7622  165.1627 C.3     1  UNL1        0.2542
     15 C         141.7776  141.4305  165.5244 C.ar    1  UNL1        0.0115
     16 C         141.7087  142.1988  166.8109 C.ar    1  UNL1       -0.0017
     17 C         142.2720  141.6072  168.0689 C.ar    1  UNL1       -0.0005
     18 C         142.9042  140.2472  168.0405 C.ar    1  UNL1       -0.0021
     19 C         142.9732  139.4789  166.7540 C.ar    1  UNL1        0.0053
     20 C         143.6054  138.1190  166.7255 C.3     1  UNL1        0.0334
     21 C         142.4099  140.0706  165.4959 C.ar    1  UNL1        0.1325
     22 F         142.4788  139.3023  164.2095 F       1  UNL1       -0.2048
     23 C         139.7832  142.4692  164.2232 C.3     1  UNL1        0.1162
     24 O         140.2315  143.8832  164.0007 O.3     1  UNL1       -0.3820
     25 H         139.4556  144.4605  163.9264 H       1  UNL1        0.2107
     26 C         138.9245  138.6557  163.5379 C.ar    1  UNL1        0.2272
     27 C         139.3729  140.0697  163.3154 C.ar    1  UNL1        0.0559
     28 C         139.3348  141.0551  164.4456 C.ar    1  UNL1        0.0117
     29 C         138.8484  140.6265  165.7983 C.ar    1  UNL1        0.0559
     30 C         138.4001  139.2125  166.0207 C.ar    1  UNL1        0.2272
     31 N         138.4381  138.2271  164.8905 N.ar    1  UNL1       -0.1767
     32 C         139.2172  138.1443  161.0074 C.3     1  UNL1        0.2542
     33 O         138.9626  137.6702  162.4076 O.3     1  UNL1       -0.4561
     34 O         137.9137  138.7839  167.3735 O.3     1  UNL1       -0.4561
     35 C         136.9602  137.6327  167.4975 C.3     1  UNL1        0.2542
     36 C         138.3520  142.9162  164.1799 C.3     1  UNL1        0.0491
     37 C         137.7870  143.5021  162.9200 C.3     1  UNL1        0.0750
     38 N         138.5207  143.3385  161.6220 N.3     1  UNL1       -0.2702
     39 C         139.5299  144.3634  161.1966 C.3     1  UNL1        0.0897
     40 C         138.2451  142.1500  160.7493 C.3     1  UNL1        0.0897
@<TRIPOS>BOND
     1    32    33    1
     2    33    26    1
     3    26    27   ar
     4    27    28   ar
     5    28    23    1
     6    23    24    1
     7    23    36    1
     8    36    37    1
     9    37    38    1
    10    38    39    1
    11    38    40    1
    12    23     1    1
    13     1     2    1
    14     2     3   ar
    15     3     4   ar
    16     4     5   ar
    17     5     6   ar
    18     6     7    1
    19     6     8   ar
    20     8     9   ar
    21     9    10   ar
    22    10    11   ar
    23    11    12   ar
    24    12    13    1
    25    13    14    1
    26     1    15    1
    27    15    16   ar
    28    16    17   ar
    29    17    18   ar
    30    18    19   ar
    31    19    20    1
    32    19    21   ar
    33    21    22    1
    34    28    29   ar
    35    29    30   ar
    36    30    34    1
    37    34    35    1
    38    30    31   ar
    39    31    26   ar
    40    12     2   ar
    41    21    15   ar
    42    10     4   ar
    43    24    25    1
@<TRIPOS>MOLECULE
*****
 40 43 0 0 0
SMALL
GASTEIGER

@<TRIPOS>ATOM
      1 C         140.7544  140.6386  163.1629 C.3     1  UNL1        0.0798
      2 C         140.4452  140.5507  164.6281 C.ar    1  UNL1        0.0374
      3 C         140.6512  141.7456  165.5111 C.ar    1  UNL1        0.0023
      4 C         140.3419  141.6577  166.9763 C.ar    1  UNL1        0.0181
      5 C         140.5479  142.8526  167.8593 C.ar    1  UNL1        0.0082
      6 C         140.2387  142.7647  169.3244 C.ar    1  UNL1        0.0347
      7 BR        140.4447  143.9596  170.2074 Br      1  UNL1       -0.0490
      8 C         139.7234  141.4818  169.9065 C.ar    1  UNL1        0.0082
      9 C         139.5174  140.2869  169.0235 C.ar    1  UNL1        0.0197
     10 C         139.8267  140.3749  167.5584 C.ar    1  UNL1        0.0844
     11 N         139.6207  139.1799  166.6753 N.ar    1  UNL1       -0.2119
     12 C         139.9299  139.2678  165.2102 C.ar    1  UNL1        0.2211
     13 O         139.7239  138.0729  164.3271 O.3     1  UNL1       -0.4563
     14 C         140.7521  136.9814  164.2903 C.3     1  UNL1        0.2542
     15 C         141.8900  139.8455  162.5872 C.ar    1  UNL1        0.0115
     16 C         143.1971  139.7673  163.3189 C.ar    1  UNL1       -0.0017
     17 C         144.3326  138.9742  162.7432 C.ar    1  UNL1       -0.0005
     18 C         144.1612  138.2594  161.4356 C.ar    1  UNL1       -0.0021
     19 C         142.8541  138.3376  160.7039 C.ar    1  UNL1        0.0053
     20 C         142.6827  137.6228  159.3964 C.3     1  UNL1        0.0334
     21 C         141.7185  139.1307  161.2797 C.ar    1  UNL1        0.1325
     22 F         140.4115  139.2090  160.5479 F       1  UNL1       -0.2048
     23 C         139.9281  141.5195  162.2735 C.3     1  UNL1        0.1162
     24 O         138.7281  140.6585  162.5356 O.3     1  UNL1       -0.3820
     25 H         137.9656  141.0100  162.0499 H       1  UNL1        0.2107
     26 C         143.0448  143.8971  162.8921 C.ar    1  UNL1        0.2272
     27 C         141.8448  143.0362  163.1543 C.ar    1  UNL1        0.0559
     28 C         141.1280  142.3805  162.0113 C.ar    1  UNL1        0.0117
     29 C         141.6113  142.5858  160.6063 C.ar    1  UNL1        0.0559
     30 C         142.8113  143.4468  160.3441 C.ar    1  UNL1        0.2272
     31 N         143.5280  144.1025  161.4871 N.ar    1  UNL1       -0.1767
     32 C         144.3395  143.7154  165.1373 C.3     1  UNL1        0.2542
     33 O         143.7616  144.5528  164.0351 O.3     1  UNL1       -0.4561
     34 O         143.2945  143.6522  158.9390 O.3     1  UNL1       -0.4561
     35 C         142.3973  144.2962  157.9239 C.3     1  UNL1        0.2542
     36 C         139.1017  142.4005  161.3841 C.3     1  UNL1        0.0491
     37 C         138.0308  143.2691  161.9745 C.3     1  UNL1        0.0750
     38 N         138.3923  144.3382  162.9627 N.3     1  UNL1       -0.2702
     39 C         139.1718  145.5395  162.5163 C.3     1  UNL1        0.0897
     40 C         137.9743  144.2060  164.3971 C.3     1  UNL1        0.0897
@<TRIPOS>BOND
     1    32    33    1
     2    33    26    1
     3    26    27   ar
     4    27    28   ar
     5    28    23    1
     6    23    24    1
     7    23    36    1
     8    36    37    1
     9    37    38    1
    10    38    39    1
    11    38    40    1
    12    23     1    1
    13     1     2    1
    14     2     3   ar
    15     3     4   ar
    16     4     5   ar
    17     5     6   ar
    18     6     7    1
    19     6     8   ar
    20     8     9   ar
    21     9    10   ar
    22    10    11   ar
    23    11    12   ar
    24    12    13    1
    25    13    14    1
    26     1    15    1
    27    15    16   ar
    28    16    17   ar
    29    17    18   ar
    30    18    19   ar
    31    19    20    1
    32    19    21   ar
    33    21    22    1
    34    28    29   ar
    35    29    30   ar
    36    30    34    1
    37    34    35    1
    38    30    31   ar
    39    31    26   ar
    40    12     2   ar
    41    21    15   ar
    42    10     4   ar
    43    24    25    1
@<TRIPOS>MOLECULE
*****
 40 43 0 0 0
SMALL
GASTEIGER

@<TRIPOS>ATOM
      1 C         141.3554  141.0232  162.6696 C.3     1  UNL1        0.0798
      2 C         141.3710  140.7478  164.1441 C.ar    1  UNL1        0.0374
      3 C         141.0108  141.8340  165.1138 C.ar    1  UNL1        0.0023
      4 C         141.0264  141.5586  166.5883 C.ar    1  UNL1        0.0181
      5 C         140.6662  142.6448  167.5580 C.ar    1  UNL1        0.0082
      6 C         140.6818  142.3694  169.0324 C.ar    1  UNL1        0.0347
      7 BR        140.3216  143.4556  170.0021 Br      1  UNL1       -0.0490
      8 C         141.0576  141.0078  169.5370 C.ar    1  UNL1        0.0082
      9 C         141.4178  139.9215  168.5674 C.ar    1  UNL1        0.0197
     10 C         141.4022  140.1970  167.0930 C.ar    1  UNL1        0.0844
     11 N         141.7624  139.1107  166.1232 N.ar    1  UNL1       -0.2119
     12 C         141.7468  139.3862  164.6488 C.ar    1  UNL1        0.2211
     13 O         142.1070  138.2999  163.6790 O.3     1  UNL1       -0.4563
     14 C         141.1328  137.1955  163.3941 C.3     1  UNL1        0.2542
     15 C         140.2452  140.4834  161.8176 C.ar    1  UNL1        0.0115
     16 C         138.8166  140.7283  162.2036 C.ar    1  UNL1       -0.0017
     17 C         137.7064  140.1886  161.3515 C.ar    1  UNL1       -0.0005
     18 C         138.0248  139.4039  160.1133 C.ar    1  UNL1       -0.0021
     19 C         139.4534  139.1590  159.7273 C.ar    1  UNL1        0.0053
     20 C         139.7719  138.3744  158.4892 C.3     1  UNL1        0.0334
     21 C         140.5637  139.6988  160.5795 C.ar    1  UNL1        0.1325
     22 F         141.9923  139.4540  160.1935 F       1  UNL1       -0.2048
     23 C         142.4501  141.8384  162.0473 C.3     1  UNL1        0.1162
     24 O         143.4487  140.7838  162.4226 O.3     1  UNL1       -0.3820
     25 H         144.3313  141.0535  162.1241 H       1  UNL1        0.2107
     26 C         140.1978  144.2585  159.8518 C.ar    1  UNL1        0.2272
     27 C         141.1964  143.2040  160.2271 C.ar    1  UNL1        0.0559
     28 C         141.4515  142.8929  161.6721 C.ar    1  UNL1        0.0117
     29 C         140.7079  143.6362  162.7419 C.ar    1  UNL1        0.0559
     30 C         139.7093  144.6908  162.3666 C.ar    1  UNL1        0.2272
     31 N         139.4543  145.0019  160.9216 N.ar    1  UNL1       -0.1767
     32 C         140.5201  145.8110  157.7936 C.3     1  UNL1        0.2542
     33 O         139.9428  144.5696  158.4067 O.3     1  UNL1       -0.4561
     34 O         138.9657  145.4342  163.4365 O.3     1  UNL1       -0.4561
     35 C         138.7948  144.8215  164.7949 C.3     1  UNL1        0.2542
     36 C         143.5447  142.6535  161.4250 C.3     1  UNL1        0.0491
     37 C         144.6253  143.2390  162.2849 C.3     1  UNL1        0.0750
     38 N         144.2938  143.7705  163.6479 N.3     1  UNL1       -0.2702
     39 C         144.5700  142.9384  164.8650 C.3     1  UNL1        0.0897
     40 C         143.6861  145.1340  163.7938 C.3     1  UNL1        0.0897
@<TRIPOS>BOND
     1    32    33    1
     2    33    26    1
     3    26    27   ar
     4    27    28   ar
     5    28    23    1
     6    23    24    1
     7    23    36    1
     8    36    37    1
     9    37    38    1
    10    38    39    1
    11    38    40    1
    12    23     1    1
    13     1     2    1
    14     2     3   ar
    15     3     4   ar
    16     4     5   ar
    17     5     6   ar
    18     6     7    1
    19     6     8   ar
    20     8     9   ar
    21     9    10   ar
    22    10    11   ar
    23    11    12   ar
    24    12    13    1
    25    13    14    1
    26     1    15    1
    27    15    16   ar
    28    16    17   ar
    29    17    18   ar
    30    18    19   ar
    31    19    20    1
    32    19    21   ar
    33    21    22    1
    34    28    29   ar
    35    29    30   ar
    36    30    34    1
    37    34    35    1
    38    30    31   ar
    39    31    26   ar
    40    12     2   ar
    41    21    15   ar
    42    10     4   ar
    43    24    25    1
@<TRIPOS>MOLECULE
*****
 40 43 0 0 0
SMALL
GASTEIGER

@<TRIPOS>ATOM
      1 C         142.1396  141.2037  163.5780 C.3     1  UNL1        0.0798
      2 C         142.4183  141.5186  165.0179 C.ar    1  UNL1        0.0374
      3 C         141.6357  140.8356  166.1001 C.ar    1  UNL1        0.0023
      4 C         141.9144  141.1505  167.5400 C.ar    1  UNL1        0.0181
      5 C         141.1319  140.4675  168.6221 C.ar    1  UNL1        0.0082
      6 C         141.4106  140.7824  170.0619 C.ar    1  UNL1        0.0347
      7 BR        140.6280  140.0994  171.1442 Br      1  UNL1       -0.0490
      8 C         142.4719  141.7802  170.4196 C.ar    1  UNL1        0.0082
      9 C         143.2545  142.4632  169.3375 C.ar    1  UNL1        0.0197
     10 C         142.9757  142.1483  167.8977 C.ar    1  UNL1        0.0844
     11 N         143.7583  142.8313  166.8154 N.ar    1  UNL1       -0.2119
     12 C         143.4796  142.5164  165.3756 C.ar    1  UNL1        0.2211
     13 O         144.2622  143.1994  164.2934 O.3     1  UNL1       -0.4563
     14 C         143.9270  144.6077  163.9002 C.3     1  UNL1        0.2542
     15 C         141.3656  142.1729  162.7346 C.ar    1  UNL1        0.0115
     16 C         141.9596  142.7012  161.4626 C.ar    1  UNL1       -0.0017
     17 C         141.1856  143.6704  160.6192 C.ar    1  UNL1       -0.0005
     18 C         139.8173  144.1114  161.0477 C.ar    1  UNL1       -0.0021
     19 C         139.2233  143.5831  162.3197 C.ar    1  UNL1        0.0053
     20 C         137.8551  144.0241  162.7483 C.3     1  UNL1        0.0334
     21 C         139.9974  142.6139  163.1632 C.ar    1  UNL1        0.1325
     22 F         139.4034  142.0856  164.4352 F       1  UNL1       -0.2048
     23 C         142.6350  139.9196  162.9816 C.3     1  UNL1        0.1162
     24 O         144.0415  140.4385  163.0328 O.3     1  UNL1       -0.3820
     25 H         144.6467  139.7675  162.6802 H       1  UNL1        0.2107
     26 C         139.0327  138.9789  161.6076 C.ar    1  UNL1        0.2272
     27 C         140.4391  139.4978  161.6588 C.ar    1  UNL1        0.0559
     28 C         141.2286  139.4008  162.9305 C.ar    1  UNL1        0.0117
     29 C         140.6115  138.7848  164.1511 C.ar    1  UNL1        0.0559
     30 C         139.2051  138.2660  164.1000 C.ar    1  UNL1        0.2272
     31 N         138.4156  138.3630  162.8282 N.ar    1  UNL1       -0.1767
     32 C         138.2308  140.3578  159.5568 C.3     1  UNL1        0.2542
     33 O         138.2432  139.0760  160.3358 O.3     1  UNL1       -0.4561
     34 O         138.5880  137.6500  165.3206 O.3     1  UNL1       -0.4561
     35 C         138.0596  138.5264  166.4173 C.3     1  UNL1        0.2542
     36 C         143.1304  138.6355  162.3852 C.3     1  UNL1        0.0491
     37 C         144.0766  138.6649  161.2217 C.3     1  UNL1        0.0750
     38 N         143.5581  138.9328  159.8399 N.3     1  UNL1       -0.2702
     39 C         143.8103  140.2602  159.1885 C.3     1  UNL1        0.0897
     40 C         142.7874  137.8734  159.1095 C.3     1  UNL1        0.0897
@<TRIPOS>BOND
     1    32    33    1
     2    33    26    1
     3    26    27   ar
     4    27    28   ar
     5    28    23    1
     6    23    24    1
     7    23    36    1
     8    36    37    1
     9    37    38    1
    10    38    39    1
    11    38    40    1
    12    23     1    1
    13     1     2    1
    14     2     3   ar
    15     3     4   ar
    16     4     5   ar
    17     5     6   ar
    18     6     7    1
    19     6     8   ar
    20     8     9   ar
    21     9    10   ar
    22    10    11   ar
    23    11    12   ar
    24    12    13    1
    25    13    14    1
    26     1    15    1
    27    15    16   ar
    28    16    17   ar
    29    17    18   ar
    30    18    19   ar
    31    19    20    1
    32    19    21   ar
    33    21    22    1
    34    28    29   ar
    35    29    30   ar
    36    30    34    1
    37    34    35    1
    38    30    31   ar
    39    31    26   ar
    40    12     2   ar
    41    21    15   ar
    42    10     4   ar
    43    24    25    1
@<TRIPOS>MOLECULE
*****
 40 43 0 0 0
SMALL
GASTEIGER

@<TRIPOS>ATOM
      1 C         141.8325  140.9652  162.5705 C.3     1  UNL1        0.0798
      2 C         141.6426  140.7155  164.0374 C.ar    1  UNL1        0.0374
      3 C         141.3381  141.8586  164.9595 C.ar    1  UNL1        0.0023
      4 C         141.1482  141.6090  166.4264 C.ar    1  UNL1        0.0181
      5 C         140.8436  142.7521  167.3485 C.ar    1  UNL1        0.0082
      6 C         140.6537  142.5024  168.8153 C.ar    1  UNL1        0.0347
      7 BR        140.3492  143.6456  169.7375 Br      1  UNL1       -0.0490
      8 C         140.7684  141.1095  169.3599 C.ar    1  UNL1        0.0082
      9 C         141.0729  139.9663  168.4378 C.ar    1  UNL1        0.0197
     10 C         141.2628  140.2160  166.9710 C.ar    1  UNL1        0.0844
     11 N         141.5674  139.0728  166.0488 N.ar    1  UNL1       -0.2119
     12 C         141.7573  139.3226  164.5820 C.ar    1  UNL1        0.2211
     13 O         142.0618  138.1794  163.6598 O.3     1  UNL1       -0.4563
     14 C         141.0384  137.1067  163.4316 C.3     1  UNL1        0.2542
     15 C         141.0405  140.1801  161.5673 C.ar    1  UNL1        0.0115
     16 C         141.7470  139.3992  160.4992 C.ar    1  UNL1       -0.0017
     17 C         140.9549  138.6141  159.4961 C.ar    1  UNL1       -0.0005
     18 C         139.4563  138.6100  159.5610 C.ar    1  UNL1       -0.0021
     19 C         138.7498  139.3910  160.6292 C.ar    1  UNL1        0.0053
     20 C         137.2512  139.3869  160.6942 C.3     1  UNL1        0.0334
     21 C         139.5419  140.1761  161.6324 C.ar    1  UNL1        0.1325
     22 F         138.8354  140.9570  162.7005 F       1  UNL1       -0.2048
     23 C         142.8145  141.9999  162.1068 C.3     1  UNL1        0.1162
     24 O         143.9206  141.2607  162.7998 O.3     1  UNL1       -0.3820
     25 H         144.7577  141.7323  162.6665 H       1  UNL1        0.2107
     26 C         139.5691  144.2089  161.5260 C.ar    1  UNL1        0.2272
     27 C         140.6752  143.4697  162.2190 C.ar    1  UNL1        0.0559
     28 C         141.7085  142.7391  161.4138 C.ar    1  UNL1        0.0117
     29 C         141.6357  142.7476  159.9157 C.ar    1  UNL1        0.0559
     30 C         140.5296  143.4868  159.2227 C.ar    1  UNL1        0.2272
     31 N         139.4963  144.2174  160.0278 N.ar    1  UNL1       -0.1767
     32 C         137.6681  144.1880  163.2968 C.3     1  UNL1        0.2542
     33 O         138.5357  144.9396  162.3313 O.3     1  UNL1       -0.4561
     34 O         140.4569  143.4953  157.7244 O.3     1  UNL1       -0.4561
     35 C         139.7872  142.3656  156.9996 C.3     1  UNL1        0.2542
     36 C         143.7965  143.0347  161.6432 C.3     1  UNL1        0.0491
     37 C         144.6599  143.7492  162.6401 C.3     1  UNL1        0.0750
     38 N         144.0763  144.2123  163.9420 N.3     1  UNL1       -0.2702
     39 C         143.0364  145.2931  163.9555 C.3     1  UNL1        0.0897
     40 C         144.5328  143.5946  165.2304 C.3     1  UNL1        0.0897
@<TRIPOS>BOND
     1    32    33    1
     2    33    26    1
     3    26    27   ar
     4    27    28   ar
     5    28    23    1
     6    23    24    1
     7    23    36    1
     8    36    37    1
     9    37    38    1
    10    38    39    1
    11    38    40    1
    12    23     1    1
    13     1     2    1
    14     2     3   ar
    15     3     4   ar
    16     4     5   ar
    17     5     6   ar
    18     6     7    1
    19     6     8   ar
    20     8     9   ar
    21     9    10   ar
    22    10    11   ar
    23    11    12   ar
    24    12    13    1
    25    13    14    1
    26     1    15    1
    27    15    16   ar
    28    16    17   ar
    29    17    18   ar
    30    18    19   ar
    31    19    20    1
    32    19    21   ar
    33    21    22    1
    34    28    29   ar
    35    29    30   ar
    36    30    34    1
    37    34    35    1
    38    30    31   ar
    39    31    26   ar
    40    12     2   ar
    41    21    15   ar
    42    10     4   ar
    43    24    25    1
@<TRIPOS>MOLECULE
*****
 40 43 0 0 0
SMALL
GASTEIGER

@<TRIPOS>ATOM
      1 C         142.2031  141.1264  163.6363 C.3     1  UNL1        0.0798
      2 C         142.4540  141.4593  165.0772 C.ar    1  UNL1        0.0374
      3 C         141.6644  140.7752  166.1535 C.ar    1  UNL1        0.0023
      4 C         141.9153  141.1081  167.5945 C.ar    1  UNL1        0.0181
      5 C         141.1256  140.4240  168.6707 C.ar    1  UNL1        0.0082
      6 C         141.3765  140.7569  170.1116 C.ar    1  UNL1        0.0347
      7 BR        140.5868  140.0728  171.1880 Br      1  UNL1       -0.0490
      8 C         142.4171  141.7738  170.4762 C.ar    1  UNL1        0.0082
      9 C         143.2068  142.4579  169.4000 C.ar    1  UNL1        0.0197
     10 C         142.9559  142.1250  167.9591 C.ar    1  UNL1        0.0844
     11 N         143.7455  142.8091  166.8827 N.ar    1  UNL1       -0.2119
     12 C         143.4946  142.4763  165.4419 C.ar    1  UNL1        0.2211
     13 O         144.2843  143.1604  164.3655 O.3     1  UNL1       -0.4563
     14 C         143.9733  144.5801  163.9945 C.3     1  UNL1        0.2542
     15 C         141.4206  142.0714  162.7735 C.ar    1  UNL1        0.0115
     16 C         142.0437  142.6495  161.5375 C.ar    1  UNL1       -0.0017
     17 C         141.2612  143.5945  160.6747 C.ar    1  UNL1       -0.0005
     18 C         139.8554  143.9616  161.0479 C.ar    1  UNL1       -0.0021
     19 C         139.2323  143.3835  162.2838 C.ar    1  UNL1        0.0053
     20 C         137.8266  143.7505  162.6569 C.3     1  UNL1        0.0334
     21 C         140.0149  142.4384  163.1466 C.ar    1  UNL1        0.1325
     22 F         139.3917  141.8604  164.3826 F       1  UNL1       -0.2048
     23 C         142.7348  139.8485  163.0582 C.3     1  UNL1        0.1162
     24 O         144.1317  140.3869  163.1528 O.3     1  UNL1       -0.3820
     25 H         144.7570  139.7238  162.8207 H       1  UNL1        0.2107
     26 C         139.2811  138.1818  164.0799 C.ar    1  UNL1        0.2272
     27 C         140.6780  138.7202  164.1745 C.ar    1  UNL1        0.0559
     28 C         141.3380  139.3101  162.9636 C.ar    1  UNL1        0.0117
     29 C         140.6012  139.3616  161.6581 C.ar    1  UNL1        0.0559
     30 C         139.2043  138.8232  161.5635 C.ar    1  UNL1        0.2272
     31 N         138.5443  138.2333  162.7744 N.ar    1  UNL1       -0.1767
     32 C         138.1407  138.4874  166.3943 C.3     1  UNL1        0.2542
     33 O         138.6211  137.5919  165.2909 O.3     1  UNL1       -0.4561
     34 O         138.4675  138.8747  160.2579 O.3     1  UNL1       -0.4561
     35 C         137.4973  139.9863  159.9877 C.3     1  UNL1        0.2542
     36 C         143.2665  138.5705  162.4801 C.3     1  UNL1        0.0491
     37 C         144.1843  138.6085  161.2943 C.3     1  UNL1        0.0750
     38 N         143.6279  138.8516  159.9227 N.3     1  UNL1       -0.2702
     39 C         142.8417  137.7777  159.2310 C.3     1  UNL1        0.0897
     40 C         143.8577  140.1688  159.2428 C.3     1  UNL1        0.0897
@<TRIPOS>BOND
     1    32    33    1
     2    33    26    1
     3    26    27   ar
     4    27    28   ar
     5    28    23    1
     6    23    24    1
     7    23    36    1
     8    36    37    1
     9    37    38    1
    10    38    39    1
    11    38    40    1
    12    23     1    1
    13     1     2    1
    14     2     3   ar
    15     3     4   ar
    16     4     5   ar
    17     5     6   ar
    18     6     7    1
    19     6     8   ar
    20     8     9   ar
    21     9    10   ar
    22    10    11   ar
    23    11    12   ar
    24    12    13    1
    25    13    14    1
    26     1    15    1
    27    15    16   ar
    28    16    17   ar
    29    17    18   ar
    30    18    19   ar
    31    19    20    1
    32    19    21   ar
    33    21    22    1
    34    28    29   ar
    35    29    30   ar
    36    30    34    1
    37    34    35    1
    38    30    31   ar
    39    31    26   ar
    40    12     2   ar
    41    21    15   ar
    42    10     4   ar
    43    24    25    1
@<TRIPOS>MOLECULE
*****
 40 43 0 0 0
SMALL
GASTEIGER

@<TRIPOS>ATOM
      1 C         140.7920  140.5630  163.0185 C.3     1  UNL1        0.0798
      2 C         140.4625  140.4742  164.4792 C.ar    1  UNL1        0.0374
      3 C         140.6957  141.6554  165.3738 C.ar    1  UNL1        0.0023
      4 C         140.3662  141.5666  166.8345 C.ar    1  UNL1        0.0181
      5 C         140.5994  142.7478  167.7291 C.ar    1  UNL1        0.0082
      6 C         140.2700  142.6590  169.1897 C.ar    1  UNL1        0.0347
      7 BR        140.5032  143.8403  170.0844 Br      1  UNL1       -0.0490
      8 C         139.7073  141.3890  169.7558 C.ar    1  UNL1        0.0082
      9 C         139.4741  140.2078  168.8612 C.ar    1  UNL1        0.0197
     10 C         139.8035  140.2966  167.4006 C.ar    1  UNL1        0.0844
     11 N         139.5703  139.1154  166.5059 N.ar    1  UNL1       -0.2119
     12 C         139.8998  139.2042  165.0453 C.ar    1  UNL1        0.2211
     13 O         139.6666  138.0229  164.1506 O.3     1  UNL1       -0.4563
     14 C         140.6697  136.9087  164.1029 C.3     1  UNL1        0.2542
     15 C         141.9260  139.7589  162.4552 C.ar    1  UNL1        0.0115
     16 C         143.2411  139.7103  163.1750 C.ar    1  UNL1       -0.0017
     17 C         144.3752  138.9062  162.6117 C.ar    1  UNL1       -0.0005
     18 C         144.1941  138.1506  161.3286 C.ar    1  UNL1       -0.0021
     19 C         142.8789  138.1991  160.6088 C.ar    1  UNL1        0.0053
     20 C         142.6978  137.4435  159.3258 C.3     1  UNL1        0.0334
     21 C         141.7449  139.0032  161.1722 C.ar    1  UNL1        0.1325
     22 F         140.4297  139.0518  160.4524 F       1  UNL1       -0.2048
     23 C         139.9873  141.4559  162.1211 C.3     1  UNL1        0.1162
     24 O         138.7624  140.6382  162.4058 O.3     1  UNL1       -0.3820
     25 H         138.0079  141.0064  161.9200 H       1  UNL1        0.2107
     26 C         142.9795  143.1685  160.1554 C.ar    1  UNL1        0.2272
     27 C         141.7546  142.3509  160.4401 C.ar    1  UNL1        0.0559
     28 C         141.2122  142.2736  161.8364 C.ar    1  UNL1        0.0117
     29 C         141.8948  143.0139  162.9481 C.ar    1  UNL1        0.0559
     30 C         143.1197  143.8316  162.6634 C.ar    1  UNL1        0.2272
     31 N         143.6620  143.9089  161.2671 N.ar    1  UNL1       -0.1767
     32 C         142.5844  143.3965  157.5976 C.3     1  UNL1        0.2542
     33 O         143.5218  143.2458  158.7590 O.3     1  UNL1       -0.4561
     34 O         143.8023  144.5720  163.7752 O.3     1  UNL1       -0.4561
     35 C         144.2981  143.8269  164.9789 C.3     1  UNL1        0.2542
     36 C         139.1827  142.3488  161.2237 C.3     1  UNL1        0.0491
     37 C         138.0326  143.1333  161.7819 C.3     1  UNL1        0.0750
     38 N         138.2027  143.9130  163.0520 N.3     1  UNL1       -0.2702
     39 C         138.9649  145.2049  163.0426 C.3     1  UNL1        0.0897
     40 C         137.6107  143.4009  164.3315 C.3     1  UNL1        0.0897
@<TRIPOS>BOND
     1    32    33    1
     2    33    26    1
     3    26    27   ar
     4    27    28   ar
     5    28    23    1
     6    23    24    1
     7    23    36    1
     8    36    37    1
     9    37    38    1
    10    38    39    1
    11    38    40    1
    12    23     1    1
    13     1     2    1
    14     2     3   ar
    15     3     4   ar
    16     4     5   ar
    17     5     6   ar
    18     6     7    1
    19     6     8   ar
    20     8     9   ar
    21     9    10   ar
    22    10    11   ar
    23    11    12   ar
    24    12    13    1
    25    13    14    1
    26     1    15    1
    27    15    16   ar
    28    16    17   ar
    29    17    18   ar
    30    18    19   ar
    31    19    20    1
    32    19    21   ar
    33    21    22    1
    34    28    29   ar
    35    29    30   ar
    36    30    34    1
    37    34    35    1
    38    30    31   ar
    39    31    26   ar
    40    12     2   ar
    41    21    15   ar
    42    10     4   ar
    43    24    25    1
@<TRIPOS>MOLECULE
*****
 40 43 0 0 0
SMALL
GASTEIGER

@<TRIPOS>ATOM
      1 C         141.6095  141.3935  163.5783 C.3     1  UNL1        0.0798
      2 C         142.0928  141.6690  164.9714 C.ar    1  UNL1        0.0374
      3 C         141.3210  141.1519  166.1490 C.ar    1  UNL1        0.0023
      4 C         141.8043  141.4274  167.5421 C.ar    1  UNL1        0.0181
      5 C         141.0325  140.9103  168.7197 C.ar    1  UNL1        0.0082
      6 C         141.5158  141.1858  170.1127 C.ar    1  UNL1        0.0347
      7 BR        140.7440  140.6687  171.2904 Br      1  UNL1       -0.0490
      8 C         142.7709  141.9785  170.3280 C.ar    1  UNL1        0.0082
      9 C         143.5427  142.4956  169.1504 C.ar    1  UNL1        0.0197
     10 C         143.0594  142.2201  167.7574 C.ar    1  UNL1        0.0844
     11 N         143.8312  142.7372  166.5797 N.ar    1  UNL1       -0.2119
     12 C         143.3479  142.4617  165.1867 C.ar    1  UNL1        0.2211
     13 O         144.1197  142.9788  164.0090 O.3     1  UNL1       -0.4563
     14 C         145.3990  142.3115  163.5991 C.3     1  UNL1        0.2542
     15 C         142.4421  140.5647  162.6457 C.ar    1  UNL1        0.0115
     16 C         142.9138  139.2051  163.0689 C.ar    1  UNL1       -0.0017
     17 C         143.7464  138.3763  162.1364 C.ar    1  UNL1       -0.0005
     18 C         144.1074  138.9070  160.7806 C.ar    1  UNL1       -0.0021
     19 C         143.6358  140.2666  160.3574 C.ar    1  UNL1        0.0053
     20 C         143.9967  140.7973  159.0017 C.3     1  UNL1        0.0334
     21 C         142.8031  141.0954  161.2900 C.ar    1  UNL1        0.1325
     22 F         142.3314  142.4550  160.8669 F       1  UNL1       -0.2048
     23 C         140.2935  141.9469  163.1178 C.3     1  UNL1        0.1162
     24 O         140.8316  143.3404  163.2546 O.3     1  UNL1       -0.3820
     25 H         140.1453  143.9781  163.0033 H       1  UNL1        0.2107
     26 C         138.7992  138.3943  164.0645 C.ar    1  UNL1        0.2272
     27 C         139.3373  139.7878  164.2012 C.ar    1  UNL1        0.0559
     28 C         139.7554  140.5534  162.9811 C.ar    1  UNL1        0.0117
     29 C         139.6354  139.9256  161.6241 C.ar    1  UNL1        0.0559
     30 C         139.0973  138.5322  161.4873 C.ar    1  UNL1        0.2272
     31 N         138.6792  137.7665  162.7075 N.ar    1  UNL1       -0.1767
     32 C         137.9436  138.3629  166.5174 C.3     1  UNL1        0.2542
     33 O         138.3811  137.6286  165.2848 O.3     1  UNL1       -0.4561
     34 O         138.9773  137.9044  160.1302 O.3     1  UNL1       -0.4561
     35 C         139.6477  138.5394  158.9482 C.3     1  UNL1        0.2542
     36 C         138.9775  142.5003  162.6574 C.3     1  UNL1        0.0491
     37 C         138.9166  143.8549  162.0161 C.3     1  UNL1        0.0750
     38 N         139.4871  144.0616  160.6443 N.3     1  UNL1       -0.2702
     39 C         139.2612  143.0338  159.5754 C.3     1  UNL1        0.0897
     40 C         140.2834  145.2961  160.3414 C.3     1  UNL1        0.0897
@<TRIPOS>BOND
     1    32    33    1
     2    33    26    1
     3    26    27   ar
     4    27    28   ar
     5    28    23    1
     6    23    24    1
     7    23    36    1
     8    36    37    1
     9    37    38    1
    10    38    39    1
    11    38    40    1
    12    23     1    1
    13     1     2    1
    14     2     3   ar
    15     3     4   ar
    16     4     5   ar
    17     5     6   ar
    18     6     7    1
    19     6     8   ar
    20     8     9   ar
    21     9    10   ar
    22    10    11   ar
    23    11    12   ar
    24    12    13    1
    25    13    14    1
    26     1    15    1
    27    15    16   ar
    28    16    17   ar
    29    17    18   ar
    30    18    19   ar
    31    19    20    1
    32    19    21   ar
    33    21    22    1
    34    28    29   ar
    35    29    30   ar
    36    30    34    1
    37    34    35    1
    38    30    31   ar
    39    31    26   ar
    40    12     2   ar
    41    21    15   ar
    42    10     4   ar
    43    24    25    1
