@<TRIPOS>MOLECULE
*****
 34 36 0 0 0
SMALL
GASTEIGER

@<TRIPOS>ATOM
      1 C         139.7192  140.6386  166.9567 C.ar    1  UNL1        0.1161
      2 N         139.1282  139.8377  168.0790 N.ar    1  UNL1       -0.2337
      3 C         139.1818  140.3615  169.4835 C.ar    1  UNL1        0.1818
      4 C         139.8265  141.6862  169.7659 C.ar    1  UNL1        0.1506
      5 N         139.8802  142.2100  171.1704 N.pl3   1  UNL1       -0.3412
      6 N         140.4175  142.4870  168.6436 N.ar    1  UNL1       -0.2132
      7 C         140.3639  141.9632  167.2391 C.ar    1  UNL1        0.1510
      8 H         139.4923  141.6844  171.9070 H       1  UNL1        0.1438
      9 H         140.3033  143.0794  171.3557 H       1  UNL1        0.1438
     10 N         140.9549  142.7641  166.1169 N.pl3   1  UNL1       -0.2920
     11 C         142.4111  142.5278  165.8454 C.3     1  UNL1        0.0922
     12 C         143.2837  143.1644  164.8044 C.3     1  UNL1        0.0215
     13 C         142.9156  144.1945  163.7782 C.3     1  UNL1        0.0018
     14 C         141.5841  144.8425  163.5392 C.3     1  UNL1        0.0018
     15 C         140.2917  144.6204  164.2676 C.3     1  UNL1        0.0215
     16 C         140.0118  143.6954  165.4148 C.3     1  UNL1        0.0922
     17 C         139.5581  139.0673  162.7431 C.ar    1  UNL1        0.3201
     18 N         140.7589  138.7947  163.5999 N.ar    1  UNL1       -0.1926
     19 C         140.8126  139.3185  165.0044 C.ar    1  UNL1        0.1067
     20 C         139.6656  140.1148  165.5522 C.ar    1  UNL1        0.0589
     21 C         138.4648  140.3874  164.6955 C.ar    1  UNL1        0.1067
     22 N         138.4111  139.8636  163.2910 N.ar    1  UNL1       -0.1926
     23 C         138.7626  139.3065  160.2813 C.3     1  UNL1        0.2559
     24 O         139.5045  138.5435  161.3385 O.3     1  UNL1       -0.4426
     25 C         138.5909  139.5607  170.6057 C.2     1  UNL1        0.3283
     26 O         139.4566  139.1171  171.7476 O.2     1  UNL1       -0.2498
     27 N         137.1342  139.2034  170.5861 N.am    1  UNL1       -0.1695
     28 H         136.5660  139.4946  169.8367 H       1  UNL1        0.2546
     29 C         136.5431  138.4026  171.7083 C.2     1  UNL1        0.3751
     30 N         137.2987  137.2389  172.2782 N.pl3   1  UNL1       -0.1313
     31 N         135.1966  138.7654  172.2606 N.pl3   1  UNL1       -0.2906
     32 H         138.1825  137.0007  171.9157 H       1  UNL1        0.3060
     33 H         134.7007  139.5292  171.8866 H       1  UNL1        0.2545
     34 H         134.8087  138.2397  172.9971 H       1  UNL1        0.2545
@<TRIPOS>BOND
     1    23    24    1
     2    24    17    1
     3    17    18   ar
     4    18    19   ar
     5    19    20   ar
     6    20     1    1
     7     1     2   ar
     8     2     3   ar
     9     3    25    1
    10    25    26    2
    11    25    27   am
    12    27    29    1
    13    29    30    2
    14    29    31    1
    15     3     4   ar
    16     4     5    1
    17     4     6   ar
    18     6     7   ar
    19     7    10    1
    20    10    11    1
    21    11    12    1
    22    12    13    1
    23    13    14    1
    24    14    15    1
    25    15    16    1
    26    20    21   ar
    27    21    22   ar
    28    22    17   ar
    29     7     1   ar
    30    16    10    1
    31    27    28    1
    32    30    32    1
    33    31    33    1
    34    31    34    1
    35     5     8    1
    36     5     9    1
@<TRIPOS>MOLECULE
*****
 34 36 0 0 0
SMALL
GASTEIGER

@<TRIPOS>ATOM
      1 C         142.0717  139.7043  166.7475 C.ar    1  UNL1        0.1161
      2 N         142.9433  139.1565  167.8386 N.ar    1  UNL1       -0.2337
      3 C         142.4378  139.1095  169.2500 C.ar    1  UNL1        0.1818
      4 C         141.0606  139.6103  169.5705 C.ar    1  UNL1        0.1506
      5 N         140.5551  139.5634  170.9820 N.pl3   1  UNL1       -0.3412
      6 N         140.1890  140.1581  168.4794 N.ar    1  UNL1       -0.2132
      7 C         140.6946  140.2050  167.0680 C.ar    1  UNL1        0.1510
      8 H         141.1271  139.2039  171.6980 H       1  UNL1        0.1438
      9 H         139.6512  139.8920  171.1923 H       1  UNL1        0.1438
     10 N         139.8229  140.7528  165.9770 N.pl3   1  UNL1       -0.2920
     11 C         139.8423  142.2440  165.8155 C.3     1  UNL1        0.0922
     12 C         139.0907  143.0877  164.8288 C.3     1  UNL1        0.0215
     13 C         138.1342  142.6485  163.7603 C.3     1  UNL1        0.0018
     14 C         137.6928  141.2573  163.4142 C.3     1  UNL1        0.0018
     15 C         138.0992  139.9616  164.0513 C.3     1  UNL1        0.0215
     16 C         139.0472  139.7371  165.1919 C.3     1  UNL1        0.0922
     17 C         143.5883  139.8452  162.5131 C.ar    1  UNL1        0.3201
     18 N         142.9781  138.5844  163.0497 N.ar    1  UNL1       -0.1926
     19 C         142.4725  138.5374  164.4612 C.ar    1  UNL1        0.1067
     20 C         142.5772  139.7512  165.3361 C.ar    1  UNL1        0.0589
     21 C         143.1875  141.0122  164.7996 C.ar    1  UNL1        0.1067
     22 N         143.6930  141.0591  163.3881 N.ar    1  UNL1       -0.1926
     23 C         143.4618  139.0298  160.0496 C.3     1  UNL1        0.2559
     24 O         144.0939  139.8922  161.1017 O.3     1  UNL1       -0.4426
     25 C         143.3094  138.5618  170.3410 C.2     1  UNL1        0.3283
     26 O         143.8375  139.4741  171.4083 O.2     1  UNL1       -0.2498
     27 N         143.6529  137.1019  170.3648 N.am    1  UNL1       -0.1695
     28 H         143.3062  136.5032  169.6644 H       1  UNL1        0.2546
     29 C         144.5245  136.5541  171.4558 C.2     1  UNL1        0.3751
     30 N         145.7309  137.3219  171.9086 N.pl3   1  UNL1       -0.1313
     31 N         144.1897  135.2386  172.0940 N.pl3   1  UNL1       -0.2906
     32 H         145.9506  138.1854  171.4898 H       1  UNL1        0.3060
     33 H         143.3979  134.7347  171.7968 H       1  UNL1        0.2545
     34 H         144.7619  134.8792  172.8100 H       1  UNL1        0.2545
@<TRIPOS>BOND
     1    23    24    1
     2    24    17    1
     3    17    18   ar
     4    18    19   ar
     5    19    20   ar
     6    20     1    1
     7     1     2   ar
     8     2     3   ar
     9     3    25    1
    10    25    26    2
    11    25    27   am
    12    27    29    1
    13    29    30    2
    14    29    31    1
    15     3     4   ar
    16     4     5    1
    17     4     6   ar
    18     6     7   ar
    19     7    10    1
    20    10    11    1
    21    11    12    1
    22    12    13    1
    23    13    14    1
    24    14    15    1
    25    15    16    1
    26    20    21   ar
    27    21    22   ar
    28    22    17   ar
    29     7     1   ar
    30    16    10    1
    31    27    28    1
    32    30    32    1
    33    31    33    1
    34    31    34    1
    35     5     8    1
    36     5     9    1
@<TRIPOS>MOLECULE
*****
 34 36 0 0 0
SMALL
GASTEIGER

@<TRIPOS>ATOM
      1 C         141.9299  141.7652  166.9828 C.ar    1  UNL1        0.1161
      2 N         142.6040  142.6753  167.9665 N.ar    1  UNL1       -0.2337
      3 C         143.1298  142.1250  169.2590 C.ar    1  UNL1        0.1818
      4 C         142.9817  140.6646  169.5680 C.ar    1  UNL1        0.1506
      5 N         143.5075  140.1144  170.8605 N.pl3   1  UNL1       -0.3412
      6 N         142.3076  139.7546  168.5843 N.ar    1  UNL1       -0.2132
      7 C         141.7818  140.3049  167.2918 C.ar    1  UNL1        0.1510
      8 H         143.9499  140.7117  171.5061 H       1  UNL1        0.1438
      9 H         143.4103  139.1559  171.0632 H       1  UNL1        0.1438
     10 N         141.1078  139.3948  166.3082 N.pl3   1  UNL1       -0.2920
     11 C         142.0178  138.6801  165.3535 C.3     1  UNL1        0.0922
     12 C         141.6576  137.7138  164.2641 C.3     1  UNL1        0.0215
     13 C         140.2988  137.2236  163.8605 C.3     1  UNL1        0.0018
     14 C         138.9643  137.5784  164.4464 C.3     1  UNL1        0.0018
     15 C         138.6592  138.5113  165.5807 C.3     1  UNL1        0.0215
     16 C         139.6132  139.3196  166.4093 C.3     1  UNL1        0.0922
     17 C         140.3523  143.4161  163.1052 C.ar    1  UNL1        0.3201
     18 N         141.7420  142.8553  163.1715 N.ar    1  UNL1       -0.1926
     19 C         142.2679  142.3051  164.4641 C.ar    1  UNL1        0.1067
     20 C         141.4041  142.3155  165.6903 C.ar    1  UNL1        0.0589
     21 C         140.0144  142.8762  165.6241 C.ar    1  UNL1        0.1067
     22 N         139.4885  143.4265  164.3315 N.ar    1  UNL1       -0.1926
     23 C         140.0550  145.4070  161.4627 C.3     1  UNL1        0.2559
     24 O         139.8265  143.9664  161.8127 O.3     1  UNL1       -0.4426
     25 C         143.8038  143.0351  170.2426 C.2     1  UNL1        0.3283
     26 O         143.0054  143.6808  171.3361 O.2     1  UNL1       -0.2498
     27 N         145.2762  143.2994  170.1328 N.am    1  UNL1       -0.1695
     28 H         145.8002  142.8756  169.4152 H       1  UNL1        0.2546
     29 C         145.9503  144.2095  171.1164 C.2     1  UNL1        0.3751
     30 N         145.2062  145.3806  171.6864 N.pl3   1  UNL1       -0.1313
     31 N         147.3682  143.9485  171.5301 N.pl3   1  UNL1       -0.2906
     32 H         144.2756  145.5519  171.4150 H       1  UNL1        0.3060
     33 H         147.8566  143.1798  171.1560 H       1  UNL1        0.2545
     34 H         147.8106  144.5458  172.1756 H       1  UNL1        0.2545
@<TRIPOS>BOND
     1    23    24    1
     2    24    17    1
     3    17    18   ar
     4    18    19   ar
     5    19    20   ar
     6    20     1    1
     7     1     2   ar
     8     2     3   ar
     9     3    25    1
    10    25    26    2
    11    25    27   am
    12    27    29    1
    13    29    30    2
    14    29    31    1
    15     3     4   ar
    16     4     5    1
    17     4     6   ar
    18     6     7   ar
    19     7    10    1
    20    10    11    1
    21    11    12    1
    22    12    13    1
    23    13    14    1
    24    14    15    1
    25    15    16    1
    26    20    21   ar
    27    21    22   ar
    28    22    17   ar
    29     7     1   ar
    30    16    10    1
    31    27    28    1
    32    30    32    1
    33    31    33    1
    34    31    34    1
    35     5     8    1
    36     5     9    1
@<TRIPOS>MOLECULE
*****
 34 36 0 0 0
SMALL
GASTEIGER

@<TRIPOS>ATOM
      1 C         142.3476  141.6861  166.9146 C.ar    1  UNL1        0.1161
      2 N         143.0173  142.6048  167.8932 N.ar    1  UNL1       -0.2337
      3 C         143.2152  142.1704  169.3152 C.ar    1  UNL1        0.1818
      4 C         142.7434  140.8173  169.7587 C.ar    1  UNL1        0.1506
      5 N         142.9413  140.3830  171.1808 N.pl3   1  UNL1       -0.3412
      6 N         142.0737  139.8987  168.7801 N.ar    1  UNL1       -0.2132
      7 C         141.8758  140.3331  167.3581 C.ar    1  UNL1        0.1510
      8 H         143.3808  140.9859  171.8230 H       1  UNL1        0.1438
      9 H         142.6316  139.4949  171.4718 H       1  UNL1        0.1438
     10 N         141.2061  139.4144  166.3796 N.pl3   1  UNL1       -0.2920
     11 C         139.7114  139.5183  166.3075 C.3     1  UNL1        0.0922
     12 C         138.7610  138.7467  165.4405 C.3     1  UNL1        0.0215
     13 C         139.0706  137.6808  164.4317 C.3     1  UNL1        0.0018
     14 C         140.4070  137.1230  164.0406 C.3     1  UNL1        0.0018
     15 C         141.7639  137.4934  164.5618 C.3     1  UNL1        0.0215
     16 C         142.1194  138.5132  165.6028 C.3     1  UNL1        0.0922
     17 C         141.7540  142.9891  162.6485 C.ar    1  UNL1        0.3201
     18 N         140.7061  143.2923  163.6781 N.ar    1  UNL1       -0.1926
     19 C         140.9040  142.8579  165.1001 C.ar    1  UNL1        0.1067
     20 C         142.1497  142.1204  165.4926 C.ar    1  UNL1        0.0589
     21 C         143.1977  141.8172  164.4631 C.ar    1  UNL1        0.1067
     22 N         142.9998  142.2516  163.0411 N.ar    1  UNL1       -0.1926
     23 C         141.1029  144.8214  160.9254 C.3     1  UNL1        0.2559
     24 O         141.5562  143.4235  161.2265 O.3     1  UNL1       -0.4426
     25 C         143.8849  143.0891  170.2937 C.2     1  UNL1        0.3283
     26 O         143.0890  143.7151  171.4005 O.2     1  UNL1       -0.2498
     27 N         145.3504  143.3818  170.1657 N.am    1  UNL1       -0.1695
     28 H         145.8728  142.9709  169.4393 H       1  UNL1        0.2546
     29 C         146.0202  144.3004  171.1442 C.2     1  UNL1        0.3751
     30 N         147.4478  144.0638  171.5387 N.pl3   1  UNL1       -0.1313
     31 N         145.2623  145.4556  171.7282 N.pl3   1  UNL1       -0.2906
     32 H         147.9453  143.3056  171.1555 H       1  UNL1        0.3060
     33 H         144.3253  145.6110  171.4693 H       1  UNL1        0.2545
     34 H         145.7020  146.0585  172.3704 H       1  UNL1        0.2545
@<TRIPOS>BOND
     1    23    24    1
     2    24    17    1
     3    17    18   ar
     4    18    19   ar
     5    19    20   ar
     6    20     1    1
     7     1     2   ar
     8     2     3   ar
     9     3    25    1
    10    25    26    2
    11    25    27   am
    12    27    29    1
    13    29    30    2
    14    29    31    1
    15     3     4   ar
    16     4     5    1
    17     4     6   ar
    18     6     7   ar
    19     7    10    1
    20    10    11    1
    21    11    12    1
    22    12    13    1
    23    13    14    1
    24    14    15    1
    25    15    16    1
    26    20    21   ar
    27    21    22   ar
    28    22    17   ar
    29     7     1   ar
    30    16    10    1
    31    27    28    1
    32    30    32    1
    33    31    33    1
    34    31    34    1
    35     5     8    1
    36     5     9    1
@<TRIPOS>MOLECULE
*****
 34 36 0 0 0
SMALL
GASTEIGER

@<TRIPOS>ATOM
      1 C         140.9774  142.5682  166.9495 C.ar    1  UNL1        0.1161
      2 N         140.1455  143.2220  168.0128 N.ar    1  UNL1       -0.2337
      3 C         140.7022  143.4059  169.3934 C.ar    1  UNL1        0.1818
      4 C         142.0909  142.9358  169.7109 C.ar    1  UNL1        0.1506
      5 N         142.6477  143.1197  171.0916 N.pl3   1  UNL1       -0.3412
      6 N         142.9227  142.2820  168.6476 N.ar    1  UNL1       -0.2132
      7 C         142.3660  142.0982  167.2670 C.ar    1  UNL1        0.1510
      8 H         142.1017  143.5488  171.7894 H       1  UNL1        0.1438
      9 H         143.5591  142.8112  171.2999 H       1  UNL1        0.1438
     10 N         143.1979  141.4443  166.2038 N.pl3   1  UNL1       -0.2920
     11 C         143.0921  139.9502  166.1217 C.3     1  UNL1        0.0922
     12 C         143.7880  139.0138  165.1788 C.3     1  UNL1        0.0215
     13 C         144.7613  139.3401  164.0853 C.3     1  UNL1        0.0018
     14 C         145.2794  140.6834  163.6643 C.3     1  UNL1        0.0018
     15 C         144.9519  142.0322  164.2331 C.3     1  UNL1        0.0215
     16 C         144.0256  142.3708  165.3633 C.3     1  UNL1        0.0922
     17 C         139.3072  142.0168  162.8075 C.ar    1  UNL1        0.3201
     18 N         139.1105  140.9501  163.8437 N.ar    1  UNL1       -0.1926
     19 C         139.6672  141.1339  165.2244 C.ar    1  UNL1        0.1067
     20 C         140.4206  142.3843  165.5689 C.ar    1  UNL1        0.0589
     21 C         140.6174  143.4510  164.5327 C.ar    1  UNL1        0.1067
     22 N         140.0606  143.2672  163.1521 N.ar    1  UNL1       -0.1926
     23 C         137.9455  140.6102  161.0994 C.3     1  UNL1        0.2559
     24 O         138.7504  141.8329  161.4269 O.3     1  UNL1       -0.4426
     25 C         139.8704  144.0597  170.4566 C.2     1  UNL1        0.3283
     26 O         139.3159  143.2408  171.5846 O.2     1  UNL1       -0.2498
     27 N         139.5929  145.5323  170.3921 N.am    1  UNL1       -0.1695
     28 H         139.9568  146.0698  169.6518 H       1  UNL1        0.2546
     29 C         138.7610  146.1862  171.4553 C.2     1  UNL1        0.3751
     30 N         139.0478  147.5994  171.8685 N.pl3   1  UNL1       -0.1313
     31 N         137.6424  145.4272  172.1052 N.pl3   1  UNL1       -0.2906
     32 H         139.7820  148.0976  171.4420 H       1  UNL1        0.3060
     33 H         137.4542  144.4997  171.8340 H       1  UNL1        0.2545
     34 H         137.0965  145.8564  172.8030 H       1  UNL1        0.2545
@<TRIPOS>BOND
     1    23    24    1
     2    24    17    1
     3    17    18   ar
     4    18    19   ar
     5    19    20   ar
     6    20     1    1
     7     1     2   ar
     8     2     3   ar
     9     3    25    1
    10    25    26    2
    11    25    27   am
    12    27    29    1
    13    29    30    2
    14    29    31    1
    15     3     4   ar
    16     4     5    1
    17     4     6   ar
    18     6     7   ar
    19     7    10    1
    20    10    11    1
    21    11    12    1
    22    12    13    1
    23    13    14    1
    24    14    15    1
    25    15    16    1
    26    20    21   ar
    27    21    22   ar
    28    22    17   ar
    29     7     1   ar
    30    16    10    1
    31    27    28    1
    32    30    32    1
    33    31    33    1
    34    31    34    1
    35     5     8    1
    36     5     9    1
@<TRIPOS>MOLECULE
*****
 34 36 0 0 0
SMALL
GASTEIGER

@<TRIPOS>ATOM
      1 C         140.3618  140.7183  165.1238 C.ar    1  UNL1        0.1161
      2 N         140.5607  140.9022  166.5992 N.ar    1  UNL1       -0.2337
      3 C         139.6567  140.2029  167.5707 C.ar    1  UNL1        0.1818
      4 C         138.5538  139.3198  167.0668 C.ar    1  UNL1        0.1506
      5 N         137.6498  138.6205  168.0383 N.pl3   1  UNL1       -0.3412
      6 N         138.3550  139.1360  165.5914 N.ar    1  UNL1       -0.2132
      7 C         139.2589  139.8353  164.6200 C.ar    1  UNL1        0.1510
      8 H         137.7803  138.7411  169.0066 H       1  UNL1        0.1438
      9 H         136.9260  138.0409  167.7076 H       1  UNL1        0.1438
     10 N         139.0600  139.6514  163.1446 N.pl3   1  UNL1       -0.2920
     11 C         138.1104  140.6115  162.4914 C.3     1  UNL1        0.0922
     12 C         137.7033  140.6891  161.0497 C.3     1  UNL1        0.0215
     13 C         138.1450  139.8259  159.9054 C.3     1  UNL1        0.0018
     14 C         139.1031  138.6718  159.9199 C.3     1  UNL1        0.0018
     15 C         139.8561  138.0959  161.0825 C.3     1  UNL1        0.0215
     16 C         139.8368  138.5320  162.5176 C.3     1  UNL1        0.0922
     17 C         143.0738  142.8161  162.2093 C.ar    1  UNL1        0.3201
     18 N         141.8183  143.4872  162.6822 N.ar    1  UNL1       -0.1926
     19 C         140.9143  142.7879  163.6537 C.ar    1  UNL1        0.1067
     20 C         141.2657  141.4176  164.1523 C.ar    1  UNL1        0.0589
     21 C         142.5212  140.7465  163.6794 C.ar    1  UNL1        0.1067
     22 N         143.4251  141.4457  162.7079 N.ar    1  UNL1       -0.1926
     23 C         144.8270  142.7159  160.2945 C.3     1  UNL1        0.2559
     24 O         143.9778  143.5154  161.2378 O.3     1  UNL1       -0.4426
     25 C         139.8555  140.3867  169.0460 C.2     1  UNL1        0.3283
     26 O         138.7610  140.0158  170.0023 O.2     1  UNL1       -0.2498
     27 N         141.1489  140.9413  169.5651 N.am    1  UNL1       -0.1695
     28 H         141.8672  141.1847  168.9375 H       1  UNL1        0.2546
     29 C         141.3478  141.1252  171.0405 C.2     1  UNL1        0.3751
     30 N         140.4112  141.9996  171.8203 N.pl3   1  UNL1       -0.1313
     31 N         142.4832  140.4347  171.7360 N.pl3   1  UNL1       -0.2906
     32 H         139.6659  142.4528  171.3637 H       1  UNL1        0.3060
     33 H         143.0980  139.8607  171.2242 H       1  UNL1        0.2545
     34 H         142.6137  140.5554  172.7043 H       1  UNL1        0.2545
@<TRIPOS>BOND
     1    23    24    1
     2    24    17    1
     3    17    18   ar
     4    18    19   ar
     5    19    20   ar
     6    20     1    1
     7     1     2   ar
     8     2     3   ar
     9     3    25    1
    10    25    26    2
    11    25    27   am
    12    27    29    1
    13    29    30    2
    14    29    31    1
    15     3     4   ar
    16     4     5    1
    17     4     6   ar
    18     6     7   ar
    19     7    10    1
    20    10    11    1
    21    11    12    1
    22    12    13    1
    23    13    14    1
    24    14    15    1
    25    15    16    1
    26    20    21   ar
    27    21    22   ar
    28    22    17   ar
    29     7     1   ar
    30    16    10    1
    31    27    28    1
    32    30    32    1
    33    31    33    1
    34    31    34    1
    35     5     8    1
    36     5     9    1
@<TRIPOS>MOLECULE
*****
 34 36 0 0 0
SMALL
GASTEIGER

@<TRIPOS>ATOM
      1 C         140.6125  141.7199  165.0376 C.ar    1  UNL1        0.1161
      2 N         140.9997  142.2518  166.3858 N.ar    1  UNL1       -0.2337
      3 C         140.5010  141.5777  167.6295 C.ar    1  UNL1        0.1818
      4 C         139.6152  140.3716  167.5252 C.ar    1  UNL1        0.1506
      5 N         139.1166  139.6974  168.7689 N.pl3   1  UNL1       -0.3412
      6 N         139.2281  139.8398  166.1771 N.ar    1  UNL1       -0.2132
      7 C         139.7267  140.5139  164.9334 C.ar    1  UNL1        0.1510
      8 H         139.3707  140.0465  169.6537 H       1  UNL1        0.1438
      9 H         138.5352  138.9059  168.7004 H       1  UNL1        0.1438
     10 N         139.3395  139.9820  163.5854 N.pl3   1  UNL1       -0.2920
     11 C         140.1902  138.8649  163.0576 C.3     1  UNL1        0.0922
     12 C         140.0643  138.1274  161.7575 C.3     1  UNL1        0.0215
     13 C         139.0567  138.3248  160.6641 C.3     1  UNL1        0.0018
     14 C         137.9260  139.3085  160.6006 C.3     1  UNL1        0.0018
     15 C         137.5238  140.3377  161.6150 C.3     1  UNL1        0.0215
     16 C         138.1529  140.6374  162.9433 C.3     1  UNL1        0.0922
     17 C         142.1084  143.7423  161.3064 C.ar    1  UNL1        0.3201
     18 N         140.8402  144.2106  161.9564 N.ar    1  UNL1       -0.1926
     19 C         140.3416  143.5365  163.2002 C.ar    1  UNL1        0.1067
     20 C         141.1111  142.3941  163.7939 C.ar    1  UNL1        0.0589
     21 C         142.3793  141.9257  163.1440 C.ar    1  UNL1        0.1067
     22 N         142.8779  142.5999  161.9003 N.ar    1  UNL1       -0.1926
     23 C         142.5029  143.7194  158.7385 C.3     1  UNL1        0.2559
     24 O         142.6070  144.4165  160.0627 O.3     1  UNL1       -0.4426
     25 C         140.8882  142.1095  168.9775 C.2     1  UNL1        0.3283
     26 O         139.8278  142.5476  169.9438 O.2     1  UNL1       -0.2498
     27 N         142.3357  142.2032  169.3593 N.am    1  UNL1       -0.1695
     28 H         143.0317  141.9157  168.7251 H       1  UNL1        0.2546
     29 C         142.7229  142.7351  170.7073 C.2     1  UNL1        0.3751
     30 N         141.9792  142.2893  171.9313 N.pl3   1  UNL1       -0.1313
     31 N         143.8538  143.7126  170.8315 N.pl3   1  UNL1       -0.2906
     32 H         141.2370  141.6477  171.8499 H       1  UNL1        0.3060
     33 H         144.3419  144.0052  170.0281 H       1  UNL1        0.2545
     34 H         144.1079  144.0616  171.7163 H       1  UNL1        0.2545
@<TRIPOS>BOND
     1    23    24    1
     2    24    17    1
     3    17    18   ar
     4    18    19   ar
     5    19    20   ar
     6    20     1    1
     7     1     2   ar
     8     2     3   ar
     9     3    25    1
    10    25    26    2
    11    25    27   am
    12    27    29    1
    13    29    30    2
    14    29    31    1
    15     3     4   ar
    16     4     5    1
    17     4     6   ar
    18     6     7   ar
    19     7    10    1
    20    10    11    1
    21    11    12    1
    22    12    13    1
    23    13    14    1
    24    14    15    1
    25    15    16    1
    26    20    21   ar
    27    21    22   ar
    28    22    17   ar
    29     7     1   ar
    30    16    10    1
    31    27    28    1
    32    30    32    1
    33    31    33    1
    34    31    34    1
    35     5     8    1
    36     5     9    1
@<TRIPOS>MOLECULE
*****
 34 36 0 0 0
SMALL
GASTEIGER

@<TRIPOS>ATOM
      1 C         142.2368  141.7700  164.6490 C.ar    1  UNL1        0.1161
      2 N         142.1687  142.3230  166.0417 N.ar    1  UNL1       -0.2337
      3 C         142.3663  141.4155  167.2195 C.ar    1  UNL1        0.1818
      4 C         142.6321  139.9549  167.0047 C.ar    1  UNL1        0.1506
      5 N         142.8297  139.0474  168.1826 N.pl3   1  UNL1       -0.3412
      6 N         142.7002  139.4019  165.6120 N.ar    1  UNL1       -0.2132
      7 C         142.5026  140.3095  164.4342 C.ar    1  UNL1        0.1510
      8 H         142.7850  139.4103  169.0966 H       1  UNL1        0.1438
      9 H         143.0041  138.0888  168.0416 H       1  UNL1        0.1438
     10 N         142.5707  139.7564  163.0415 N.pl3   1  UNL1       -0.2920
     11 C         141.2925  139.1819  162.5062 C.3     1  UNL1        0.0922
     12 C         141.0360  138.5601  161.1655 C.3     1  UNL1        0.0215
     13 C         141.9941  138.3591  160.0291 C.3     1  UNL1        0.0018
     14 C         143.4454  138.7303  159.9525 C.3     1  UNL1        0.0018
     15 C         144.2971  139.3941  160.9936 C.3     1  UNL1        0.0215
     16 C         143.9077  139.8508  162.3684 C.3     1  UNL1        0.0922
     17 C         141.6439  144.4926  161.1154 C.ar    1  UNL1        0.3201
     18 N         143.0100  144.3239  161.7115 N.ar    1  UNL1       -0.1926
     19 C         143.2077  143.4164  162.8893 C.ar    1  UNL1        0.1067
     20 C         142.0392  142.6775  163.4711 C.ar    1  UNL1        0.0589
     21 C         140.6730  142.8461  162.8752 C.ar    1  UNL1        0.1067
     22 N         140.4754  143.7536  161.6973 N.ar    1  UNL1       -0.1926
     23 C         140.3491  145.1228  158.9529 C.3     1  UNL1        0.2559
     24 O         141.4462  145.4001  159.9376 O.3     1  UNL1       -0.4426
     25 C         142.2982  141.9685  168.6122 C.2     1  UNL1        0.3283
     26 O         143.4568  142.7409  169.1700 O.2     1  UNL1       -0.2498
     27 N         141.0715  141.7493  169.4470 N.am    1  UNL1       -0.1695
     28 H         140.3111  141.2424  169.0809 H       1  UNL1        0.2546
     29 C         141.0033  142.3023  170.8397 C.2     1  UNL1        0.3751
     30 N         142.1899  142.1894  171.7504 N.pl3   1  UNL1       -0.1313
     31 N         139.7487  142.9681  171.3218 N.pl3   1  UNL1       -0.2906
     32 H         143.0134  141.7524  171.4340 H       1  UNL1        0.3060
     33 H         138.9699  143.0422  170.7241 H       1  UNL1        0.2545
     34 H         139.7040  143.3310  172.2359 H       1  UNL1        0.2545
@<TRIPOS>BOND
     1    23    24    1
     2    24    17    1
     3    17    18   ar
     4    18    19   ar
     5    19    20   ar
     6    20     1    1
     7     1     2   ar
     8     2     3   ar
     9     3    25    1
    10    25    26    2
    11    25    27   am
    12    27    29    1
    13    29    30    2
    14    29    31    1
    15     3     4   ar
    16     4     5    1
    17     4     6   ar
    18     6     7   ar
    19     7    10    1
    20    10    11    1
    21    11    12    1
    22    12    13    1
    23    13    14    1
    24    14    15    1
    25    15    16    1
    26    20    21   ar
    27    21    22   ar
    28    22    17   ar
    29     7     1   ar
    30    16    10    1
    31    27    28    1
    32    30    32    1
    33    31    33    1
    34    31    34    1
    35     5     8    1
    36     5     9    1
@<TRIPOS>MOLECULE
*****
 34 36 0 0 0
SMALL
GASTEIGER

@<TRIPOS>ATOM
      1 C         141.6991  141.0018  165.1006 C.ar    1  UNL1        0.1161
      2 N         141.5350  140.8971  166.5880 N.ar    1  UNL1       -0.2337
      3 C         142.2599  139.8270  167.3491 C.ar    1  UNL1        0.1818
      4 C         143.1489  138.8614  166.6228 C.ar    1  UNL1        0.1506
      5 N         143.8738  137.7912  167.3838 N.pl3   1  UNL1       -0.3412
      6 N         143.3129  138.9661  165.1354 N.ar    1  UNL1       -0.2132
      7 C         142.5880  140.0363  164.3744 C.ar    1  UNL1        0.1510
      8 H         143.7661  137.7225  168.3600 H       1  UNL1        0.1438
      9 H         144.4573  137.1575  166.9071 H       1  UNL1        0.1438
     10 N         142.7521  140.1409  162.8871 N.pl3   1  UNL1       -0.2920
     11 C         143.7879  141.1173  162.4137 C.3     1  UNL1        0.0922
     12 C         144.1861  141.4492  161.0061 C.3     1  UNL1        0.0215
     13 C         143.6470  140.8868  159.7244 C.3     1  UNL1        0.0018
     14 C         142.5766  139.8535  159.5335 C.3     1  UNL1        0.0018
     15 C         141.7808  139.1275  160.5773 C.3     1  UNL1        0.0215
     16 C         141.8590  139.2554  162.0698 C.3     1  UNL1        0.0922
     17 C         139.5243  144.2123  162.8174 C.ar    1  UNL1        0.3201
     18 N         140.8255  144.5245  163.4953 N.ar    1  UNL1       -0.1926
     19 C         141.5504  143.4543  164.2564 C.ar    1  UNL1        0.1067
     20 C         140.9742  142.0720  164.3396 C.ar    1  UNL1        0.0589
     21 C         139.6730  141.7597  163.6617 C.ar    1  UNL1        0.1067
     22 N         138.9481  142.8299  162.9007 N.ar    1  UNL1       -0.1926
     23 C         139.5536  146.4626  161.5192 C.3     1  UNL1        0.2559
     24 O         138.7994  145.2825  162.0564 O.3     1  UNL1       -0.4426
     25 C         142.0958  139.7223  168.8363 C.2     1  UNL1        0.3283
     26 O         143.2460  139.2728  169.6880 O.2     1  UNL1       -0.2498
     27 N         140.7818  140.0671  169.4721 N.am    1  UNL1       -0.1695
     28 H         140.0269  140.3621  168.9131 H       1  UNL1        0.2546
     29 C         140.6176  139.9625  170.9594 C.2     1  UNL1        0.3751
     30 N         141.5321  140.7265  171.8704 N.pl3   1  UNL1       -0.1313
     31 N         139.5391  139.0939  171.5357 N.pl3   1  UNL1       -0.2906
     32 H         142.2400  141.2966  171.4921 H       1  UNL1        0.3060
     33 H         138.9389  138.5924  170.9378 H       1  UNL1        0.2545
     34 H         139.4315  139.0253  172.5119 H       1  UNL1        0.2545
@<TRIPOS>BOND
     1    23    24    1
     2    24    17    1
     3    17    18   ar
     4    18    19   ar
     5    19    20   ar
     6    20     1    1
     7     1     2   ar
     8     2     3   ar
     9     3    25    1
    10    25    26    2
    11    25    27   am
    12    27    29    1
    13    29    30    2
    14    29    31    1
    15     3     4   ar
    16     4     5    1
    17     4     6   ar
    18     6     7   ar
    19     7    10    1
    20    10    11    1
    21    11    12    1
    22    12    13    1
    23    13    14    1
    24    14    15    1
    25    15    16    1
    26    20    21   ar
    27    21    22   ar
    28    22    17   ar
    29     7     1   ar
    30    16    10    1
    31    27    28    1
    32    30    32    1
    33    31    33    1
    34    31    34    1
    35     5     8    1
    36     5     9    1
