@<TRIPOS>MOLECULE
*****
 48 51 0 0 0
SMALL
GASTEIGER

@<TRIPOS>ATOM
      1 C         140.7870  141.5312  159.7780 C.3     1  UNL1        0.1541
      2 N         141.8575  139.0989  156.8304 N.am    1  UNL1       -0.2683
      3 C         141.3366  139.5808  158.1518 C.2     1  UNL1        0.3048
      4 O         140.8442  138.5942  159.1689 O.2     1  UNL1       -0.2525
      5 N         141.3080  141.0493  158.4564 N.am    1  UNL1       -0.2821
      6 H         142.1807  139.7464  156.1629 H       1  UNL1        0.1564
      7 H         141.6312  141.6968  157.7889 H       1  UNL1        0.1514
      8 C         141.9432  134.6935  155.9167 C.ar    1  UNL1        0.0757
      9 C         142.9700  135.2894  156.8334 C.ar    1  UNL1        0.0077
     10 C         142.9414  136.7579  157.1380 C.ar    1  UNL1        0.0149
     11 C         141.8860  137.6304  156.5258 C.ar    1  UNL1        0.0516
     12 C         140.8592  137.0345  155.6091 C.ar    1  UNL1        0.0149
     13 C         140.8878  135.5660  155.3045 C.ar    1  UNL1        0.0077
     14 C         141.9717  133.2250  155.6122 C.2     1  UNL1        0.3411
     15 O         141.4947  132.7258  154.2805 O.2     1  UNL1       -0.2449
     16 O         142.4772  132.2557  156.6392 O.3     1  UNL1       -0.4492
     17 C         144.8435  132.2214  157.7115 C.3     1  UNL1        0.0473
     18 C         143.9099  131.8123  156.6109 C.3     1  UNL1        0.1694
     19 C         144.4090  130.9598  155.4822 C.3     1  UNL1        0.0473
     20 C         141.5745  141.2829  161.0302 C.2     1  UNL1        0.2408
     21 O         142.3703  142.3940  161.6484 O.2     1  UNL1       -0.2733
     22 N         141.5663  139.9235  161.6643 N.am    1  UNL1       -0.2994
     23 H         141.0440  139.1942  161.2585 H       1  UNL1        0.1496
     24 C         142.3538  139.6752  162.9165 C.3     1  UNL1        0.1274
     25 C         143.8525  139.6398  162.8654 C.3     1  UNL1        0.0317
     26 C         144.6400  139.3916  164.1176 C.3     1  UNL1        0.0630
     27 C         143.9288  139.1787  165.4211 C.3     1  UNL1        0.1092
     28 N         142.4301  139.2141  165.4722 N.4     1  UNL1        0.3062
     29 C         141.0369  139.1563  166.0249 C.3     1  UNL1        0.1709
     30 C         141.6426  139.4624  164.2199 C.3     1  UNL1        0.1288
     31 C         142.7338  138.9458  166.9164 C.3     1  UNL1        0.1364
     32 C         142.6556  140.0590  167.9187 C.ar    1  UNL1        0.0358
     33 C         142.7116  141.4862  167.4603 C.ar    1  UNL1        0.0016
     34 C         142.6335  142.5994  168.4626 C.ar    1  UNL1        0.0030
     35 C         142.4993  142.2855  169.9233 C.ar    1  UNL1        0.0366
     36 C         142.4433  140.8583  170.3816 C.ar    1  UNL1        0.1336
     37 O         142.3091  140.5445  171.8423 O.3     1  UNL1       -0.5055
     38 C         142.5214  139.7451  169.3793 C.ar    1  UNL1        0.0380
     39 H         142.2603  141.2399  172.4683 H       1  UNL1        0.2922
     40 C         139.4786  142.2613  159.8472 C.3     1  UNL1        0.0553
     41 C         139.0002  142.8209  161.1541 C.ar    1  UNL1       -0.0198
     42 C         139.4484  144.1825  161.5960 C.ar    1  UNL1       -0.0011
     43 C         138.9700  144.7420  162.9029 C.ar    1  UNL1        0.0363
     44 C         138.0434  143.9401  163.7679 C.ar    1  UNL1        0.1337
     45 O         137.5650  144.4996  165.0748 O.3     1  UNL1       -0.5055
     46 C         137.5951  142.5786  163.3260 C.ar    1  UNL1        0.0363
     47 C         138.0735  142.0189  162.0190 C.ar    1  UNL1       -0.0011
     48 H         137.8450  145.3501  165.3508 H       1  UNL1        0.2922
@<TRIPOS>UNITY_ATOM_ATTR
28 1
charge 1
@<TRIPOS>BOND
     1    17    18    1
     2    18    19    1
     3    18    16    1
     4    16    14    1
     5    14    15    2
     6    14     8    1
     7     8     9   ar
     8     9    10   ar
     9    10    11   ar
    10    11     2    1
    11     2     3   am
    12     3     4    2
    13     3     5   am
    14     5     1    1
    15     1    40    1
    16    40    41    1
    17    41    42   ar
    18    42    43   ar
    19    43    44   ar
    20    44    45    1
    21    44    46   ar
    22    46    47   ar
    23     1    20    1
    24    20    21    2
    25    20    22   am
    26    24    22    1
    27    24    25    1
    28    25    26    1
    29    26    27    1
    30    27    28    1
    31    28    29    1
    32    28    31    1
    33    31    32    1
    34    32    33   ar
    35    33    34   ar
    36    34    35   ar
    37    35    36   ar
    38    36    37    1
    39    36    38   ar
    40    28    30    1
    41    11    12   ar
    42    12    13   ar
    43    13     8   ar
    44    47    41   ar
    45    30    24    1
    46    38    32   ar
    47     2     6    1
    48     5     7    1
    49    45    48    1
    50    22    23    1
    51    37    39    1
@<TRIPOS>MOLECULE
*****
 48 51 0 0 0
SMALL
GASTEIGER

@<TRIPOS>ATOM
      1 C         141.5862  141.5954  160.6107 C.3     1  UNL1        0.1541
      2 N         143.5174  141.3426  164.0685 N.am    1  UNL1       -0.2683
      3 C         142.4155  141.2809  163.0527 C.2     1  UNL1        0.3048
      4 O         141.0408  140.8428  163.4631 O.2     1  UNL1       -0.2525
      5 N         142.6882  141.6572  161.6265 N.am    1  UNL1       -0.2821
      6 H         144.4196  141.6302  163.7992 H       1  UNL1        0.1564
      7 H         143.5904  141.9447  161.3572 H       1  UNL1        0.1514
      8 C         142.6993  140.2137  168.3471 C.ar    1  UNL1        0.0757
      9 C         142.8265  141.6583  167.9638 C.ar    1  UNL1        0.0077
     10 C         143.0992  142.0346  166.5376 C.ar    1  UNL1        0.0149
     11 C         143.2447  140.9663  165.4947 C.ar    1  UNL1        0.0516
     12 C         143.1175  139.5218  165.8780 C.ar    1  UNL1        0.0149
     13 C         142.8448  139.1455  167.3042 C.ar    1  UNL1        0.0077
     14 C         142.4266  139.8374  169.7733 C.2     1  UNL1        0.3411
     15 O         142.9121  138.5228  170.3081 O.2     1  UNL1       -0.2449
     16 O         141.6685  140.7757  170.6647 O.3     1  UNL1       -0.4492
     17 C         139.2745  140.2521  169.8018 C.3     1  UNL1        0.0473
     18 C         140.2988  141.2428  170.2701 C.3     1  UNL1        0.1694
     19 C         139.9533  142.7006  170.3439 C.3     1  UNL1        0.0473
     20 C         141.4129  140.3682  159.7658 C.2     1  UNL1        0.2408
     21 O         141.3495  139.0158  160.4116 O.2     1  UNL1       -0.2733
     22 N         141.3031  140.4934  158.2750 N.am    1  UNL1       -0.2994
     23 H         141.3447  141.3810  157.8511 H       1  UNL1        0.1496
     24 C         141.1298  139.2662  157.4301 C.3     1  UNL1        0.1274
     25 C         139.7816  138.6187  157.3154 C.3     1  UNL1        0.0317
     26 C         139.6084  137.3915  156.4705 C.3     1  UNL1        0.0630
     27 C         140.7834  136.8117  155.7402 C.3     1  UNL1        0.1092
     28 N         142.1316  137.4592  155.8548 N.4     1  UNL1        0.3062
     29 C         143.5962  137.7108  155.6515 C.3     1  UNL1        0.1709
     30 C         142.3048  138.6864  156.6998 C.3     1  UNL1        0.1288
     31 C         142.4670  136.3193  154.9393 C.3     1  UNL1        0.1364
     32 C         142.5556  134.9234  155.4809 C.ar    1  UNL1        0.0358
     33 C         141.7082  133.8350  154.8916 C.ar    1  UNL1        0.0016
     34 C         141.7969  132.4390  155.4333 C.ar    1  UNL1        0.0030
     35 C         142.7329  132.1314  156.5643 C.ar    1  UNL1        0.0366
     36 C         143.5804  133.2198  157.1536 C.ar    1  UNL1        0.1336
     37 O         144.5165  132.9122  158.2846 O.3     1  UNL1       -0.5055
     38 C         143.4917  134.6158  156.6119 C.ar    1  UNL1        0.0380
     39 H         144.5718  132.0402  158.6229 H       1  UNL1        0.2922
     40 C         140.6574  142.7609  160.4399 C.3     1  UNL1        0.0553
     41 C         139.8385  143.2437  161.6001 C.ar    1  UNL1       -0.0198
     42 C         138.4641  142.6887  161.8307 C.ar    1  UNL1       -0.0011
     43 C         137.6452  143.1715  162.9909 C.ar    1  UNL1        0.0363
     44 C         138.2007  144.2093  163.9207 C.ar    1  UNL1        0.1337
     45 O         137.3817  144.6921  165.0809 O.3     1  UNL1       -0.5055
     46 C         139.5750  144.7643  163.6902 C.ar    1  UNL1        0.0363
     47 C         140.3940  144.2815  162.5299 C.ar    1  UNL1       -0.0011
     48 H         136.5232  144.3454  165.2249 H       1  UNL1        0.2922
@<TRIPOS>UNITY_ATOM_ATTR
28 1
charge 1
@<TRIPOS>BOND
     1    17    18    1
     2    18    19    1
     3    18    16    1
     4    16    14    1
     5    14    15    2
     6    14     8    1
     7     8     9   ar
     8     9    10   ar
     9    10    11   ar
    10    11     2    1
    11     2     3   am
    12     3     4    2
    13     3     5   am
    14     5     1    1
    15     1    40    1
    16    40    41    1
    17    41    42   ar
    18    42    43   ar
    19    43    44   ar
    20    44    45    1
    21    44    46   ar
    22    46    47   ar
    23     1    20    1
    24    20    21    2
    25    20    22   am
    26    24    22    1
    27    24    25    1
    28    25    26    1
    29    26    27    1
    30    27    28    1
    31    28    29    1
    32    28    31    1
    33    31    32    1
    34    32    33   ar
    35    33    34   ar
    36    34    35   ar
    37    35    36   ar
    38    36    37    1
    39    36    38   ar
    40    28    30    1
    41    11    12   ar
    42    12    13   ar
    43    13     8   ar
    44    47    41   ar
    45    30    24    1
    46    38    32   ar
    47     2     6    1
    48     5     7    1
    49    45    48    1
    50    22    23    1
    51    37    39    1
@<TRIPOS>MOLECULE
*****
 48 51 0 0 0
SMALL
GASTEIGER

@<TRIPOS>ATOM
      1 C         142.5002  139.9614  158.5069 C.3     1  UNL1        0.1541
      2 N         143.7633  136.7923  156.4792 N.am    1  UNL1       -0.2683
      3 C         142.8592  137.7352  157.2164 C.2     1  UNL1        0.3048
      4 O         141.4099  137.3949  157.4004 O.2     1  UNL1       -0.2525
      5 N         143.4044  139.0184  157.7697 N.am    1  UNL1       -0.2821
      6 H         144.7145  137.0156  156.3584 H       1  UNL1        0.1564
      7 H         144.3556  139.2418  157.6489 H       1  UNL1        0.1514
      8 C         142.1279  132.9425  154.8194 C.ar    1  UNL1        0.0757
      9 C         142.5553  133.0186  156.2552 C.ar    1  UNL1        0.0077
     10 C         143.1005  134.3018  156.8084 C.ar    1  UNL1        0.0149
     11 C         143.2182  135.5090  155.9259 C.ar    1  UNL1        0.0516
     12 C         142.7907  135.4329  154.4902 C.ar    1  UNL1        0.0149
     13 C         142.2455  134.1497  153.9369 C.ar    1  UNL1        0.0077
     14 C         141.5827  131.6593  154.2662 C.2     1  UNL1        0.3411
     15 O         140.3553  131.6757  153.4041 O.2     1  UNL1       -0.2449
     16 O         142.2650  130.3596  154.5749 O.3     1  UNL1       -0.4492
     17 C         144.0825  130.1428  152.7312 C.3     1  UNL1        0.0473
     18 C         143.6974  130.1523  154.1809 C.3     1  UNL1        0.1694
     19 C         144.7445  129.9546  155.2364 C.3     1  UNL1        0.0473
     20 C         142.1488  139.6963  159.9408 C.2     1  UNL1        0.2408
     21 O         142.9791  140.2919  161.0390 O.2     1  UNL1       -0.2733
     22 N         140.9670  138.8357  160.2767 N.am    1  UNL1       -0.2994
     23 H         140.4220  138.4449  159.5560 H       1  UNL1        0.1496
     24 C         140.6155  138.5707  161.7106 C.3     1  UNL1        0.1274
     25 C         141.3781  137.5422  162.4920 C.3     1  UNL1        0.0317
     26 C         141.0267  137.2772  163.9259 C.3     1  UNL1        0.0630
     27 C         139.9126  138.0407  164.5786 C.3     1  UNL1        0.1092
     28 N         139.1500  139.0693  163.7972 N.4     1  UNL1        0.3062
     29 C         138.1440  140.1342  163.4750 C.3     1  UNL1        0.1709
     30 C         139.5015  139.3343  162.3632 C.3     1  UNL1        0.1288
     31 C         138.4492  139.1741  165.1193 C.3     1  UNL1        0.1364
     32 C         139.0752  139.9490  166.2406 C.ar    1  UNL1        0.0358
     33 C         139.9174  141.1537  165.9412 C.ar    1  UNL1        0.0016
     34 C         140.5434  141.9286  167.0626 C.ar    1  UNL1        0.0030
     35 C         140.3273  141.4989  168.4834 C.ar    1  UNL1        0.0366
     36 C         139.4851  140.2943  168.7829 C.ar    1  UNL1        0.1336
     37 O         139.2691  139.8646  170.2037 O.3     1  UNL1       -0.5055
     38 C         138.8591  139.5194  167.6614 C.ar    1  UNL1        0.0380
     39 H         139.6602  140.3487  170.9041 H       1  UNL1        0.2922
     40 C         141.9476  141.1693  157.8101 C.3     1  UNL1        0.0553
     41 C         141.3755  142.3010  158.6113 C.ar    1  UNL1       -0.0198
     42 C         139.8905  142.4215  158.7851 C.ar    1  UNL1       -0.0011
     43 C         139.3185  143.5532  159.5862 C.ar    1  UNL1        0.0363
     44 C         140.2314  144.5646  160.2136 C.ar    1  UNL1        0.1337
     45 O         139.6594  145.6964  161.0147 O.3     1  UNL1       -0.5055
     46 C         141.7164  144.4442  160.0398 C.ar    1  UNL1        0.0363
     47 C         142.2885  143.3124  159.2387 C.ar    1  UNL1       -0.0011
     48 H         138.7318  145.7716  161.1233 H       1  UNL1        0.2922
@<TRIPOS>UNITY_ATOM_ATTR
28 1
charge 1
@<TRIPOS>BOND
     1    17    18    1
     2    18    19    1
     3    18    16    1
     4    16    14    1
     5    14    15    2
     6    14     8    1
     7     8     9   ar
     8     9    10   ar
     9    10    11   ar
    10    11     2    1
    11     2     3   am
    12     3     4    2
    13     3     5   am
    14     5     1    1
    15     1    40    1
    16    40    41    1
    17    41    42   ar
    18    42    43   ar
    19    43    44   ar
    20    44    45    1
    21    44    46   ar
    22    46    47   ar
    23     1    20    1
    24    20    21    2
    25    20    22   am
    26    24    22    1
    27    24    25    1
    28    25    26    1
    29    26    27    1
    30    27    28    1
    31    28    29    1
    32    28    31    1
    33    31    32    1
    34    32    33   ar
    35    33    34   ar
    36    34    35   ar
    37    35    36   ar
    38    36    37    1
    39    36    38   ar
    40    28    30    1
    41    11    12   ar
    42    12    13   ar
    43    13     8   ar
    44    47    41   ar
    45    30    24    1
    46    38    32   ar
    47     2     6    1
    48     5     7    1
    49    45    48    1
    50    22    23    1
    51    37    39    1
@<TRIPOS>MOLECULE
*****
 48 51 0 0 0
SMALL
GASTEIGER

@<TRIPOS>ATOM
      1 C         140.3615  139.6009  157.9139 C.3     1  UNL1        0.1541
      2 N         138.4223  138.5476  161.2125 N.am    1  UNL1       -0.2683
      3 C         139.4300  139.1869  160.3037 C.2     1  UNL1        0.3048
      4 O         140.5139  140.0517  160.8760 O.2     1  UNL1       -0.2525
      5 N         139.3538  138.9615  158.8227 N.am    1  UNL1       -0.2821
      6 H         137.7109  137.9801  160.8369 H       1  UNL1        0.1564
      7 H         138.6424  138.3940  158.4471 H       1  UNL1        0.1514
      8 C         138.6509  139.2239  165.6555 C.ar    1  UNL1        0.0757
      9 C         138.0850  140.2884  164.7630 C.ar    1  UNL1        0.0077
     10 C         138.0088  140.0629  163.2820 C.ar    1  UNL1        0.0149
     11 C         138.4985  138.7731  162.6935 C.ar    1  UNL1        0.0516
     12 C         139.0644  137.7086  163.5860 C.ar    1  UNL1        0.0149
     13 C         139.1406  137.9340  165.0670 C.ar    1  UNL1        0.0077
     14 C         138.7271  139.4493  167.1365 C.2     1  UNL1        0.3411
     15 O         137.8055  138.7052  168.0568 O.2     1  UNL1       -0.2449
     16 O         139.7249  140.4188  167.6972 O.3     1  UNL1       -0.4492
     17 C         142.1216  139.6310  167.0767 C.3     1  UNL1        0.0473
     18 C         141.0835  139.9394  168.1147 C.3     1  UNL1        0.1694
     19 C         141.4041  139.7685  169.5700 C.3     1  UNL1        0.0473
     20 C         139.9553  140.7405  157.0273 C.2     1  UNL1        0.2408
     21 O         139.9571  140.5690  155.5372 O.2     1  UNL1       -0.2733
     22 N         139.5474  142.0518  157.6309 N.am    1  UNL1       -0.2994
     23 H         139.5462  142.1644  158.6089 H       1  UNL1        0.1496
     24 C         139.1412  143.1915  156.7443 C.3     1  UNL1        0.1274
     25 C         137.7561  143.2385  156.1704 C.3     1  UNL1        0.0317
     26 C         137.3499  144.3781  155.2838 C.3     1  UNL1        0.0630
     27 C         138.3288  145.4709  154.9710 C.3     1  UNL1        0.1092
     28 N         139.7139  145.4239  155.5450 N.4     1  UNL1        0.3062
     29 C         141.1284  145.8206  155.8475 C.3     1  UNL1        0.1709
     30 C         140.1200  144.2842  156.4316 C.3     1  UNL1        0.1288
     31 C         139.7989  146.7014  154.7634 C.3     1  UNL1        0.1364
     32 C         139.3300  147.9879  155.3757 C.ar    1  UNL1        0.0358
     33 C         139.3864  149.2601  154.5831 C.ar    1  UNL1        0.0016
     34 C         138.9174  150.5466  155.1955 C.ar    1  UNL1        0.0030
     35 C         138.3921  150.5609  156.6004 C.ar    1  UNL1        0.0366
     36 C         138.3357  149.2886  157.3930 C.ar    1  UNL1        0.1336
     37 O         137.8103  149.3029  158.7979 O.3     1  UNL1       -0.5055
     38 C         138.8046  148.0022  156.7806 C.ar    1  UNL1        0.0380
     39 H         137.5174  150.1066  159.1804 H       1  UNL1        0.2922
     40 C         141.7754  139.1005  157.8918 C.3     1  UNL1        0.0553
     41 C         142.9137  140.0727  157.7972 C.ar    1  UNL1       -0.0198
     42 C         143.9055  139.9597  156.6775 C.ar    1  UNL1       -0.0011
     43 C         145.0438  140.9320  156.5829 C.ar    1  UNL1        0.0363
     44 C         145.1903  142.0173  157.6079 C.ar    1  UNL1        0.1337
     45 O         146.3286  142.9895  157.5133 O.3     1  UNL1       -0.5055
     46 C         144.1986  142.1303  158.7275 C.ar    1  UNL1        0.0363
     47 C         143.0602  141.1580  158.8222 C.ar    1  UNL1       -0.0011
     48 H         146.9481  142.9189  156.8139 H       1  UNL1        0.2922
@<TRIPOS>UNITY_ATOM_ATTR
28 1
charge 1
@<TRIPOS>BOND
     1    17    18    1
     2    18    19    1
     3    18    16    1
     4    16    14    1
     5    14    15    2
     6    14     8    1
     7     8     9   ar
     8     9    10   ar
     9    10    11   ar
    10    11     2    1
    11     2     3   am
    12     3     4    2
    13     3     5   am
    14     5     1    1
    15     1    40    1
    16    40    41    1
    17    41    42   ar
    18    42    43   ar
    19    43    44   ar
    20    44    45    1
    21    44    46   ar
    22    46    47   ar
    23     1    20    1
    24    20    21    2
    25    20    22   am
    26    24    22    1
    27    24    25    1
    28    25    26    1
    29    26    27    1
    30    27    28    1
    31    28    29    1
    32    28    31    1
    33    31    32    1
    34    32    33   ar
    35    33    34   ar
    36    34    35   ar
    37    35    36   ar
    38    36    37    1
    39    36    38   ar
    40    28    30    1
    41    11    12   ar
    42    12    13   ar
    43    13     8   ar
    44    47    41   ar
    45    30    24    1
    46    38    32   ar
    47     2     6    1
    48     5     7    1
    49    45    48    1
    50    22    23    1
    51    37    39    1
@<TRIPOS>MOLECULE
*****
 48 51 0 0 0
SMALL
GASTEIGER

@<TRIPOS>ATOM
      1 C         141.7525  138.9400  157.6157 C.3     1  UNL1        0.1541
      2 N         142.5056  137.4943  161.2341 N.am    1  UNL1       -0.2683
      3 C         142.1151  138.4430  160.1399 C.2     1  UNL1        0.3048
      4 O         141.6967  139.8439  160.4757 O.2     1  UNL1       -0.2525
      5 N         142.1430  137.9911  158.7099 N.am    1  UNL1       -0.2821
      6 H         142.7803  136.5749  161.0137 H       1  UNL1        0.1564
      7 H         142.4177  137.0717  158.4894 H       1  UNL1        0.1514
      8 C         142.4220  138.8501  165.5241 C.ar    1  UNL1        0.0757
      9 C         141.2784  138.0558  164.9662 C.ar    1  UNL1        0.0077
     10 C         141.3063  137.6039  163.5361 C.ar    1  UNL1        0.0149
     11 C         142.4778  137.9462  162.6641 C.ar    1  UNL1        0.0516
     12 C         143.6213  138.7405  163.2221 C.ar    1  UNL1        0.0149
     13 C         143.5934  139.1925  164.6521 C.ar    1  UNL1        0.0077
     14 C         142.3941  139.3021  166.9542 C.2     1  UNL1        0.3411
     15 O         143.2885  138.6479  167.9651 O.2     1  UNL1       -0.2449
     16 O         141.4717  140.4082  167.3733 O.3     1  UNL1       -0.4492
     17 C         140.5820  142.7364  166.6397 C.3     1  UNL1        0.0473
     18 C         141.7315  141.8140  166.9190 C.3     1  UNL1        0.1694
     19 C         143.1406  142.2973  166.7440 C.3     1  UNL1        0.0473
     20 C         140.3266  139.0077  157.1551 C.2     1  UNL1        0.2408
     21 O         139.2114  138.7741  158.1308 O.2     1  UNL1       -0.2733
     22 N         140.0158  139.3090  155.7189 N.am    1  UNL1       -0.2994
     23 H         140.7477  139.4623  155.0786 H       1  UNL1        0.1496
     24 C         138.5899  139.3767  155.2584 C.3     1  UNL1        0.1274
     25 C         137.9639  138.1944  154.5798 C.3     1  UNL1        0.0317
     26 C         136.5380  138.2621  154.1192 C.3     1  UNL1        0.0630
     27 C         135.7379  139.5121  154.3373 C.3     1  UNL1        0.1092
     28 N         136.3639  140.6944  155.0159 N.4     1  UNL1        0.3062
     29 C         136.5125  142.0655  155.6057 C.3     1  UNL1        0.1709
     30 C         137.7899  140.6266  155.4765 C.3     1  UNL1        0.1288
     31 C         134.9895  141.2383  154.7602 C.3     1  UNL1        0.1364
     32 C         133.8347  140.7847  155.6031 C.ar    1  UNL1        0.0358
     33 C         132.4393  141.2118  155.2557 C.ar    1  UNL1        0.0016
     34 C         131.2844  140.7582  156.0986 C.ar    1  UNL1        0.0030
     35 C         131.5248  139.8775  157.2888 C.ar    1  UNL1        0.0366
     36 C         132.9202  139.4504  157.6362 C.ar    1  UNL1        0.1336
     37 O         133.1606  138.5697  158.8264 O.3     1  UNL1       -0.5055
     38 C         134.0751  139.9040  156.7933 C.ar    1  UNL1        0.0380
     39 H         132.4392  138.2864  159.3529 H       1  UNL1        0.2922
     40 C         142.7879  139.8211  156.9821 C.3     1  UNL1        0.0553
     41 C         142.7467  141.3043  157.2017 C.ar    1  UNL1       -0.0198
     42 C         142.1398  142.1998  156.1625 C.ar    1  UNL1       -0.0011
     43 C         142.0985  143.6830  156.3821 C.ar    1  UNL1        0.0363
     44 C         142.6641  144.2709  157.6409 C.ar    1  UNL1        0.1337
     45 O         142.6228  145.7541  157.8605 O.3     1  UNL1       -0.5055
     46 C         143.2709  143.3755  158.6801 C.ar    1  UNL1        0.0363
     47 C         143.3122  141.8921  158.4605 C.ar    1  UNL1       -0.0011
     48 H         142.2437  146.3134  157.2114 H       1  UNL1        0.2922
@<TRIPOS>UNITY_ATOM_ATTR
28 1
charge 1
@<TRIPOS>BOND
     1    17    18    1
     2    18    19    1
     3    18    16    1
     4    16    14    1
     5    14    15    2
     6    14     8    1
     7     8     9   ar
     8     9    10   ar
     9    10    11   ar
    10    11     2    1
    11     2     3   am
    12     3     4    2
    13     3     5   am
    14     5     1    1
    15     1    40    1
    16    40    41    1
    17    41    42   ar
    18    42    43   ar
    19    43    44   ar
    20    44    45    1
    21    44    46   ar
    22    46    47   ar
    23     1    20    1
    24    20    21    2
    25    20    22   am
    26    24    22    1
    27    24    25    1
    28    25    26    1
    29    26    27    1
    30    27    28    1
    31    28    29    1
    32    28    31    1
    33    31    32    1
    34    32    33   ar
    35    33    34   ar
    36    34    35   ar
    37    35    36   ar
    38    36    37    1
    39    36    38   ar
    40    28    30    1
    41    11    12   ar
    42    12    13   ar
    43    13     8   ar
    44    47    41   ar
    45    30    24    1
    46    38    32   ar
    47     2     6    1
    48     5     7    1
    49    45    48    1
    50    22    23    1
    51    37    39    1
@<TRIPOS>MOLECULE
*****
 48 51 0 0 0
SMALL
GASTEIGER

@<TRIPOS>ATOM
      1 C         140.7195  140.7609  159.1040 C.3     1  UNL1        0.1541
      2 N         141.8566  138.1124  156.3759 N.am    1  UNL1       -0.2683
      3 C         141.3394  138.6928  157.6587 C.2     1  UNL1        0.3048
      4 O         140.9251  137.7856  158.7792 O.2     1  UNL1       -0.2525
      5 N         141.2366  140.1805  157.8211 N.am    1  UNL1       -0.2821
      6 H         142.1285  138.7078  155.6405 H       1  UNL1        0.1564
      7 H         141.5085  140.7759  157.0857 H       1  UNL1        0.1514
      8 C         142.1650  133.6495  155.8886 C.ar    1  UNL1        0.0757
      9 C         141.1269  134.4173  155.1253 C.ar    1  UNL1        0.0077
     10 C         141.0241  135.9050  155.2877 C.ar    1  UNL1        0.0149
     11 C         141.9594  136.6248  156.2135 C.ar    1  UNL1        0.0516
     12 C         142.9975  135.8570  156.9768 C.ar    1  UNL1        0.0149
     13 C         143.1003  134.3693  156.8144 C.ar    1  UNL1        0.0077
     14 C         142.2679  132.1619  155.7262 C.2     1  UNL1        0.3411
     15 O         141.9593  131.5289  154.4018 O.2     1  UNL1       -0.2449
     16 O         142.6792  131.3072  156.8882 O.3     1  UNL1       -0.4492
     17 C         144.9556  130.8023  155.7421 C.3     1  UNL1        0.0473
     18 C         144.0676  130.7427  156.9496 C.3     1  UNL1        0.1694
     19 C         144.5680  130.1187  158.2185 C.3     1  UNL1        0.0473
     20 C         141.2843  140.3028  160.4159 C.2     1  UNL1        0.2408
     21 O         142.7498  140.4569  160.6963 O.2     1  UNL1       -0.2733
     22 N         140.3836  139.6906  161.4474 N.am    1  UNL1       -0.2994
     23 H         139.4218  139.5894  161.2634 H       1  UNL1        0.1496
     24 C         140.9485  139.2325  162.7593 C.3     1  UNL1        0.1274
     25 C         140.9291  137.7758  163.1166 C.3     1  UNL1        0.0317
     26 C         141.4939  137.3177  164.4284 C.3     1  UNL1        0.0630
     27 C         142.0782  138.3164  165.3832 C.3     1  UNL1        0.1092
     28 N         142.0975  139.7731  165.0259 N.4     1  UNL1        0.3062
     29 C         142.3426  141.2486  165.1378 C.3     1  UNL1        0.1709
     30 C         141.5326  140.2311  163.7140 C.3     1  UNL1        0.1288
     31 C         142.7475  139.8274  166.3767 C.3     1  UNL1        0.1364
     32 C         141.9050  139.9738  167.6091 C.ar    1  UNL1        0.0358
     33 C         140.4101  140.0223  167.4943 C.ar    1  UNL1        0.0016
     34 C         139.5677  140.1686  168.7267 C.ar    1  UNL1        0.0030
     35 C         140.2200  140.2665  170.0739 C.ar    1  UNL1        0.0366
     36 C         141.7148  140.2180  170.1887 C.ar    1  UNL1        0.1336
     37 O         142.3671  140.3159  171.5359 O.3     1  UNL1       -0.5055
     38 C         142.5573  140.0717  168.9562 C.ar    1  UNL1        0.0380
     39 H         141.8408  140.4073  172.3057 H       1  UNL1        0.2922
     40 C         139.6375  141.7994  159.0749 C.3     1  UNL1        0.0553
     41 C         139.7812  143.0551  159.8827 C.ar    1  UNL1       -0.0198
     42 C         139.1095  143.1682  161.2191 C.ar    1  UNL1       -0.0011
     43 C         139.2533  144.4239  162.0269 C.ar    1  UNL1        0.0363
     44 C         140.0687  145.5665  161.4983 C.ar    1  UNL1        0.1337
     45 O         140.2125  146.8222  162.3061 O.3     1  UNL1       -0.5055
     46 C         140.7404  145.4534  160.1619 C.ar    1  UNL1        0.0363
     47 C         140.5967  144.1977  159.3541 C.ar    1  UNL1       -0.0011
     48 H         139.7929  146.8928  163.1409 H       1  UNL1        0.2922
@<TRIPOS>UNITY_ATOM_ATTR
28 1
charge 1
@<TRIPOS>BOND
     1    17    18    1
     2    18    19    1
     3    18    16    1
     4    16    14    1
     5    14    15    2
     6    14     8    1
     7     8     9   ar
     8     9    10   ar
     9    10    11   ar
    10    11     2    1
    11     2     3   am
    12     3     4    2
    13     3     5   am
    14     5     1    1
    15     1    40    1
    16    40    41    1
    17    41    42   ar
    18    42    43   ar
    19    43    44   ar
    20    44    45    1
    21    44    46   ar
    22    46    47   ar
    23     1    20    1
    24    20    21    2
    25    20    22   am
    26    24    22    1
    27    24    25    1
    28    25    26    1
    29    26    27    1
    30    27    28    1
    31    28    29    1
    32    28    31    1
    33    31    32    1
    34    32    33   ar
    35    33    34   ar
    36    34    35   ar
    37    35    36   ar
    38    36    37    1
    39    36    38   ar
    40    28    30    1
    41    11    12   ar
    42    12    13   ar
    43    13     8   ar
    44    47    41   ar
    45    30    24    1
    46    38    32   ar
    47     2     6    1
    48     5     7    1
    49    45    48    1
    50    22    23    1
    51    37    39    1
@<TRIPOS>MOLECULE
*****
 48 51 0 0 0
SMALL
GASTEIGER

@<TRIPOS>ATOM
      1 C         142.0908  140.3728  159.6946 C.3     1  UNL1        0.1541
      2 N         141.4502  137.7754  156.7632 N.am    1  UNL1       -0.2683
      3 C         142.0101  138.3988  158.0073 C.2     1  UNL1        0.3048
      4 O         143.0495  137.6718  158.8081 O.2     1  UNL1       -0.2525
      5 N         141.5308  139.7493  158.4505 N.am    1  UNL1       -0.2821
      6 H         140.7681  138.2525  156.2376 H       1  UNL1        0.1564
      7 H         140.8487  140.2265  157.9249 H       1  UNL1        0.1514
      8 C         142.8881  133.7239  155.4335 C.ar    1  UNL1        0.0757
      9 C         141.4864  134.1604  155.1260 C.ar    1  UNL1        0.0077
     10 C         141.0071  135.5109  155.5692 C.ar    1  UNL1        0.0149
     11 C         141.9295  136.4249  156.3200 C.ar    1  UNL1        0.0516
     12 C         143.3312  135.9884  156.6275 C.ar    1  UNL1        0.0149
     13 C         143.8105  134.6379  156.1843 C.ar    1  UNL1        0.0077
     14 C         143.3675  132.3735  154.9903 C.2     1  UNL1        0.3411
     15 O         142.5698  131.5839  153.9952 O.2     1  UNL1       -0.2449
     16 O         144.6445  131.8125  155.5421 O.3     1  UNL1       -0.4492
     17 C         144.9152  129.2303  155.4486 C.3     1  UNL1        0.0473
     18 C         144.6423  130.4803  156.2315 C.3     1  UNL1        0.1694
     19 C         144.3674  130.3982  157.7038 C.3     1  UNL1        0.0473
     20 C         141.6672  139.8685  161.0423 C.2     1  UNL1        0.2408
     21 O         142.6177  139.0576  161.8724 O.2     1  UNL1       -0.2733
     22 N         140.2931  140.1752  161.5599 N.am    1  UNL1       -0.2994
     23 H         139.6693  140.7074  161.0151 H       1  UNL1        0.1496
     24 C         139.8695  139.6709  162.9076 C.3     1  UNL1        0.1274
     25 C         139.5127  138.2253  163.0893 C.3     1  UNL1        0.0317
     26 C         139.0891  137.7211  164.4369 C.3     1  UNL1        0.0630
     27 C         139.0223  138.6624  165.6030 C.3     1  UNL1        0.1092
     28 N         139.3791  140.1080  165.4212 N.4     1  UNL1        0.3062
     29 C         139.6175  141.5526  165.7468 C.3     1  UNL1        0.1709
     30 C         139.8027  140.6122  164.0735 C.3     1  UNL1        0.1288
     31 C         139.0383  140.1054  166.8820 C.3     1  UNL1        0.1364
     32 C         140.1309  140.0302  167.9069 C.ar    1  UNL1        0.0358
     33 C         141.5334  139.7055  167.4856 C.ar    1  UNL1        0.0016
     34 C         142.6260  139.6303  168.5106 C.ar    1  UNL1        0.0030
     35 C         142.3161  139.8799  169.9569 C.ar    1  UNL1        0.0366
     36 C         140.9136  140.2046  170.3782 C.ar    1  UNL1        0.1336
     37 O         140.6037  140.4542  171.8244 O.3     1  UNL1       -0.5055
     38 C         139.8210  140.2798  169.3532 C.ar    1  UNL1        0.0380
     39 H         141.2862  140.4072  172.4647 H       1  UNL1        0.2922
     40 C         143.0745  141.5005  159.5910 C.3     1  UNL1        0.0553
     41 C         143.2416  142.4573  160.7340 C.ar    1  UNL1       -0.0198
     42 C         142.1999  143.5049  160.9937 C.ar    1  UNL1       -0.0011
     43 C         142.3671  144.4617  162.1367 C.ar    1  UNL1        0.0363
     44 C         143.5760  144.3710  163.0201 C.ar    1  UNL1        0.1337
     45 O         143.7432  145.3278  164.1631 O.3     1  UNL1       -0.5055
     46 C         144.6177  143.3235  162.7604 C.ar    1  UNL1        0.0363
     47 C         144.4506  142.3666  161.6173 C.ar    1  UNL1       -0.0011
     48 H         143.0924  145.9822  164.3253 H       1  UNL1        0.2922
@<TRIPOS>UNITY_ATOM_ATTR
28 1
charge 1
@<TRIPOS>BOND
     1    17    18    1
     2    18    19    1
     3    18    16    1
     4    16    14    1
     5    14    15    2
     6    14     8    1
     7     8     9   ar
     8     9    10   ar
     9    10    11   ar
    10    11     2    1
    11     2     3   am
    12     3     4    2
    13     3     5   am
    14     5     1    1
    15     1    40    1
    16    40    41    1
    17    41    42   ar
    18    42    43   ar
    19    43    44   ar
    20    44    45    1
    21    44    46   ar
    22    46    47   ar
    23     1    20    1
    24    20    21    2
    25    20    22   am
    26    24    22    1
    27    24    25    1
    28    25    26    1
    29    26    27    1
    30    27    28    1
    31    28    29    1
    32    28    31    1
    33    31    32    1
    34    32    33   ar
    35    33    34   ar
    36    34    35   ar
    37    35    36   ar
    38    36    37    1
    39    36    38   ar
    40    28    30    1
    41    11    12   ar
    42    12    13   ar
    43    13     8   ar
    44    47    41   ar
    45    30    24    1
    46    38    32   ar
    47     2     6    1
    48     5     7    1
    49    45    48    1
    50    22    23    1
    51    37    39    1
@<TRIPOS>MOLECULE
*****
 48 51 0 0 0
SMALL
GASTEIGER

@<TRIPOS>ATOM
      1 C         139.0644  139.6816  160.4577 C.3     1  UNL1        0.1541
      2 N         139.3772  138.6663  164.2815 N.am    1  UNL1       -0.2683
      3 C         139.6067  139.3760  162.9801 C.2     1  UNL1        0.3048
      4 O         140.6080  140.4901  162.8998 O.2     1  UNL1       -0.2525
      5 N         138.8349  138.9718  161.7591 N.am    1  UNL1       -0.2821
      6 H         138.7201  137.9351  164.3342 H       1  UNL1        0.1564
      7 H         138.1778  138.2406  161.8118 H       1  UNL1        0.1514
      8 C         141.6926  139.8790  167.9446 C.ar    1  UNL1        0.0757
      9 C         140.2071  140.0811  167.8952 C.ar    1  UNL1        0.0077
     10 C         139.4353  139.6769  166.6742 C.ar    1  UNL1        0.0149
     11 C         140.1490  139.0705  165.5025 C.ar    1  UNL1        0.0516
     12 C         141.6345  138.8683  165.5519 C.ar    1  UNL1        0.0149
     13 C         142.4063  139.2726  166.7729 C.ar    1  UNL1        0.0077
     14 C         142.4644  140.2832  169.1656 C.2     1  UNL1        0.3411
     15 O         143.1616  139.2426  169.9908 O.2     1  UNL1       -0.2449
     16 O         142.5389  141.7281  169.5615 O.3     1  UNL1       -0.4492
     17 C         140.7717  141.7475  171.4659 C.3     1  UNL1        0.0473
     18 C         141.3738  142.3793  170.2459 C.3     1  UNL1        0.1694
     19 C         140.8108  143.6623  169.7102 C.3     1  UNL1        0.0473
     20 C         140.0682  139.1479  159.4791 C.2     1  UNL1        0.2408
     21 O         141.2670  138.3924  159.9712 O.2     1  UNL1       -0.2733
     22 N         139.8732  139.3697  158.0084 N.am    1  UNL1       -0.2994
     23 H         139.0864  139.8655  157.6855 H       1  UNL1        0.1496
     24 C         140.8769  138.8360  157.0299 C.3     1  UNL1        0.1274
     25 C         142.1811  139.5491  156.8291 C.3     1  UNL1        0.0317
     26 C         143.1849  139.0154  155.8505 C.3     1  UNL1        0.0630
     27 C         142.8844  137.7685  155.0727 C.3     1  UNL1        0.1092
     28 N         141.5802  137.0553  155.2735 N.4     1  UNL1        0.3062
     29 C         140.4935  136.0336  155.1154 C.3     1  UNL1        0.1709
     30 C         140.5764  137.5891  156.2521 C.3     1  UNL1        0.1288
     31 C         142.2065  136.1668  154.2400 C.3     1  UNL1        0.1364
     32 C         142.7297  134.8161  154.6298 C.ar    1  UNL1        0.0358
     33 C         142.4048  133.6154  153.7915 C.ar    1  UNL1        0.0016
     34 C         142.9280  132.2648  154.1813 C.ar    1  UNL1        0.0030
     35 C         143.7761  132.1148  155.4094 C.ar    1  UNL1        0.0366
     36 C         144.1010  133.3155  156.2478 C.ar    1  UNL1        0.1336
     37 O         144.9491  133.1655  157.4759 O.3     1  UNL1       -0.5055
     38 C         143.5778  134.6661  155.8579 C.ar    1  UNL1        0.0380
     39 H         145.2759  132.3218  157.7193 H       1  UNL1        0.2922
     40 C         138.2902  140.9251  160.1349 C.3     1  UNL1        0.0553
     41 C         138.6946  142.2380  160.7372 C.ar    1  UNL1       -0.0198
     42 C         139.7491  143.0741  160.0745 C.ar    1  UNL1       -0.0011
     43 C         140.1535  144.3869  160.6768 C.ar    1  UNL1        0.0363
     44 C         139.5036  144.8637  161.9418 C.ar    1  UNL1        0.1337
     45 O         139.9080  146.1766  162.5441 O.3     1  UNL1       -0.5055
     46 C         138.4491  144.0277  162.6045 C.ar    1  UNL1        0.0363
     47 C         138.0446  142.7148  162.0022 C.ar    1  UNL1       -0.0011
     48 H         140.5667  146.6989  162.1301 H       1  UNL1        0.2922
@<TRIPOS>UNITY_ATOM_ATTR
28 1
charge 1
@<TRIPOS>BOND
     1    17    18    1
     2    18    19    1
     3    18    16    1
     4    16    14    1
     5    14    15    2
     6    14     8    1
     7     8     9   ar
     8     9    10   ar
     9    10    11   ar
    10    11     2    1
    11     2     3   am
    12     3     4    2
    13     3     5   am
    14     5     1    1
    15     1    40    1
    16    40    41    1
    17    41    42   ar
    18    42    43   ar
    19    43    44   ar
    20    44    45    1
    21    44    46   ar
    22    46    47   ar
    23     1    20    1
    24    20    21    2
    25    20    22   am
    26    24    22    1
    27    24    25    1
    28    25    26    1
    29    26    27    1
    30    27    28    1
    31    28    29    1
    32    28    31    1
    33    31    32    1
    34    32    33   ar
    35    33    34   ar
    36    34    35   ar
    37    35    36   ar
    38    36    37    1
    39    36    38   ar
    40    28    30    1
    41    11    12   ar
    42    12    13   ar
    43    13     8   ar
    44    47    41   ar
    45    30    24    1
    46    38    32   ar
    47     2     6    1
    48     5     7    1
    49    45    48    1
    50    22    23    1
    51    37    39    1
@<TRIPOS>MOLECULE
*****
 48 51 0 0 0
SMALL
GASTEIGER

@<TRIPOS>ATOM
      1 C         138.5106  140.2201  161.3622 C.3     1  UNL1        0.1541
      2 N         139.2130  138.7578  164.9842 N.am    1  UNL1       -0.2683
      3 C         139.2215  139.6816  163.8024 C.2     1  UNL1        0.3048
      4 O         139.9498  140.9908  163.8791 O.2     1  UNL1       -0.2525
      5 N         138.5020  139.2963  162.5440 N.am    1  UNL1       -0.2821
      6 H         138.7350  137.8986  164.9338 H       1  UNL1        0.1564
      7 H         138.0240  138.4370  162.4936 H       1  UNL1        0.1514
      8 C         141.3717  139.9138  168.7595 C.ar    1  UNL1        0.0757
      9 C         139.8748  139.9880  168.6988 C.ar    1  UNL1        0.0077
     10 C         139.1552  139.6027  167.4403 C.ar    1  UNL1        0.0149
     11 C         139.9325  139.1432  166.2426 C.ar    1  UNL1        0.0516
     12 C         141.4294  139.0690  166.3034 C.ar    1  UNL1        0.0149
     13 C         142.1490  139.4543  167.5618 C.ar    1  UNL1        0.0077
     14 C         142.0913  140.2992  170.0180 C.2     1  UNL1        0.3411
     15 O         143.3299  139.5603  170.4299 O.2     1  UNL1       -0.2449
     16 O         141.5722  141.4234  170.8645 O.3     1  UNL1       -0.4492
     17 C         140.6851  143.6302  169.8189 C.3     1  UNL1        0.0473
     18 C         141.7999  142.8453  170.4446 C.3     1  UNL1        0.1694
     19 C         143.1422  143.4824  170.6503 C.3     1  UNL1        0.0473
     20 C         139.3447  139.8917  160.1596 C.2     1  UNL1        0.2408
     21 O         138.7089  139.2640  158.9546 O.2     1  UNL1       -0.2733
     22 N         140.8146  140.1910  160.1618 N.am    1  UNL1       -0.2994
     23 H         141.2318  140.6030  160.9526 H       1  UNL1        0.1496
     24 C         141.6486  139.8626  158.9591 C.3     1  UNL1        0.1274
     25 C         142.1714  138.4699  158.7666 C.3     1  UNL1        0.0317
     26 C         143.0055  138.1415  157.5639 C.3     1  UNL1        0.0630
     27 C         143.3168  139.2058  156.5538 C.3     1  UNL1        0.1092
     28 N         142.7940  140.5985  156.7463 N.4     1  UNL1        0.3062
     29 C         142.5290  142.0525  156.4903 C.3     1  UNL1        0.1709
     30 C         141.9599  140.9269  157.9491 C.3     1  UNL1        0.1288
     31 C         143.5361  140.7750  155.4547 C.3     1  UNL1        0.1364
     32 C         144.9448  141.2900  155.4635 C.ar    1  UNL1        0.0358
     33 C         145.8354  141.0586  154.2788 C.ar    1  UNL1        0.0016
     34 C         147.2441  141.5736  154.2876 C.ar    1  UNL1        0.0030
     35 C         147.7625  142.3200  155.4810 C.ar    1  UNL1        0.0366
     36 C         146.8719  142.5514  156.6657 C.ar    1  UNL1        0.1336
     37 O         147.3902  143.2978  157.8591 O.3     1  UNL1       -0.5055
     38 C         145.4631  142.0364  156.6569 C.ar    1  UNL1        0.0380
     39 H         148.2703  143.6195  157.8645 H       1  UNL1        0.2922
     40 C         137.6851  141.4724  161.3832 C.3     1  UNL1        0.0553
     41 C         138.3434  142.8009  161.6103 C.ar    1  UNL1       -0.0198
     42 C         139.3488  143.3181  160.6245 C.ar    1  UNL1       -0.0011
     43 C         140.0071  144.6466  160.8517 C.ar    1  UNL1        0.0363
     44 C         139.6600  145.4580  162.0646 C.ar    1  UNL1        0.1337
     45 O         140.3183  146.7865  162.2917 O.3     1  UNL1       -0.5055
     46 C         138.6547  144.9409  163.0504 C.ar    1  UNL1        0.0363
     47 C         137.9963  143.6123  162.8233 C.ar    1  UNL1       -0.0011
     48 H         140.9464  147.1096  161.6759 H       1  UNL1        0.2922
@<TRIPOS>UNITY_ATOM_ATTR
28 1
charge 1
@<TRIPOS>BOND
     1    17    18    1
     2    18    19    1
     3    18    16    1
     4    16    14    1
     5    14    15    2
     6    14     8    1
     7     8     9   ar
     8     9    10   ar
     9    10    11   ar
    10    11     2    1
    11     2     3   am
    12     3     4    2
    13     3     5   am
    14     5     1    1
    15     1    40    1
    16    40    41    1
    17    41    42   ar
    18    42    43   ar
    19    43    44   ar
    20    44    45    1
    21    44    46   ar
    22    46    47   ar
    23     1    20    1
    24    20    21    2
    25    20    22   am
    26    24    22    1
    27    24    25    1
    28    25    26    1
    29    26    27    1
    30    27    28    1
    31    28    29    1
    32    28    31    1
    33    31    32    1
    34    32    33   ar
    35    33    34   ar
    36    34    35   ar
    37    35    36   ar
    38    36    37    1
    39    36    38   ar
    40    28    30    1
    41    11    12   ar
    42    12    13   ar
    43    13     8   ar
    44    47    41   ar
    45    30    24    1
    46    38    32   ar
    47     2     6    1
    48     5     7    1
    49    45    48    1
    50    22    23    1
    51    37    39    1
