@<TRIPOS>MOLECULE
*****
 33 36 0 0 0
SMALL
GASTEIGER

@<TRIPOS>ATOM
      1 C         140.4963  140.3511  160.4036 C.2     1  UNL1        0.0620
      2 C         141.8539  139.9058  159.9468 C.2     1  UNL1        0.0622
      3 C         141.9836  138.9705  158.7813 C.2     1  UNL1        0.2254
      4 N         143.1797  138.3638  158.1096 N.2     1  UNL1       -0.0319
      5 C         142.6910  137.4988  156.9857 C.2     1  UNL1        0.4061
      6 N         141.1929  137.5709  156.9629 N.2     1  UNL1       -0.0486
      7 C         140.7557  138.4804  158.0727 C.3     1  UNL1        0.3025
      8 C         139.3981  138.9258  158.5295 C.2     1  UNL1        0.0474
      9 C         139.2685  139.8611  159.6950 C.2     1  UNL1        0.0714
     10 CL        137.9108  140.3064  160.1518 Cl      1  UNL1       -0.0811
     11 N         140.1072  143.1572  163.9000 N.3     1  UNL1       -0.2698
     12 C         139.9722  141.6777  164.1071 C.3     1  UNL1        0.0938
     13 C         140.1018  140.7424  162.9416 C.3     1  UNL1        0.1081
     14 N         140.3666  141.2865  161.5691 N.pl3   1  UNL1       -0.3039
     15 C         140.5016  142.7660  161.3620 C.3     1  UNL1        0.1081
     16 C         140.3719  143.7013  162.5275 C.3     1  UNL1        0.0938
     17 C         138.6920  144.8306  165.2954 C.3     1  UNL1        0.0188
     18 C         139.9775  144.0926  165.0654 C.3     1  UNL1        0.0722
     19 C         143.5497  136.7017  156.0491 C.2     1  UNL1        0.2592
     20 O         144.8197  137.2909  155.5109 O.2     1  UNL1       -0.2832
     21 C         143.1382  135.3153  155.6507 C.3     1  UNL1        0.0634
     22 C         142.8102  136.0571  154.3889 C.3     1  UNL1        0.0080
     23 C         143.6092  135.0550  157.0509 C.3     1  UNL1        0.0092
     24 C         143.5548  133.6660  157.6145 C.3     1  UNL1        0.0201
     25 C         143.0295  132.5372  156.7778 C.3     1  UNL1        0.0748
     26 C         142.5585  132.7976  155.3777 C.3     1  UNL1        0.0201
     27 C         142.6129  134.1866  154.8141 C.3     1  UNL1        0.0092
     28 N         142.9751  131.1482  157.3414 N.am    1  UNL1       -0.2723
     29 C         144.0240  130.1443  156.9645 C.2     1  UNL1        0.4017
     30 O         145.1273  130.5296  156.0241 O.2     1  UNL1       -0.2264
     31 H         142.2510  130.8953  157.9586 H       1  UNL1        0.1527
     32 O         143.9697  128.7553  157.5280 O.3     1  UNL1       -0.4306
     33 C         143.7349  128.5497  158.9952 C.3     1  UNL1        0.2573
@<TRIPOS>BOND
     1    17    18    1
     2    18    11    1
     3    11    12    1
     4    12    13    1
     5    13    14    1
     6    14     1    1
     7     1     2    2
     8     2     3    1
     9     3     4    2
    10     4     5    1
    11     5    19    1
    12    19    20    2
    13    19    21    1
    14    21    22    1
    15    21    23    1
    16    23    24    1
    17    24    25    1
    18    25    28    1
    19    28    29   am
    20    29    30    2
    21    29    32    1
    22    32    33    1
    23    25    26    1
    24    26    27    1
    25     5     6    2
    26     6     7    1
    27     7     8    1
    28     8     9    2
    29     9    10    1
    30    14    15    1
    31    15    16    1
    32    16    11    1
    33     9     1    1
    34     7     3    1
    35    27    21    1
    36    28    31    1
@<TRIPOS>MOLECULE
*****
 33 36 0 0 0
SMALL
GASTEIGER

@<TRIPOS>ATOM
      1 C         142.4283  143.5928  158.6896 C.2     1  UNL1        0.0620
      2 C         141.9838  142.7175  159.8238 C.2     1  UNL1        0.0622
      3 C         140.9248  143.1979  160.7713 C.2     1  UNL1        0.2254
      4 N         140.2891  142.5622  161.9720 N.2     1  UNL1       -0.0319
      5 C         139.2818  143.5249  162.5274 C.2     1  UNL1        0.4061
      6 N         139.2949  144.7556  161.6699 N.2     1  UNL1       -0.0486
      7 C         140.3103  144.5535  160.5846 C.3     1  UNL1        0.3025
      8 C         140.7549  145.4287  159.4504 C.2     1  UNL1        0.0474
      9 C         141.8139  144.9483  158.5029 C.2     1  UNL1        0.0714
     10 CL        142.2584  145.8235  157.3687 Cl      1  UNL1       -0.0811
     11 N         145.6053  142.1516  155.8470 N.3     1  UNL1       -0.2698
     12 C         144.2402  142.4998  155.3321 C.3     1  UNL1        0.0938
     13 C         143.1812  142.9802  156.2796 C.3     1  UNL1        0.1081
     14 N         143.4874  143.1124  157.7421 N.pl3   1  UNL1       -0.3039
     15 C         144.8525  142.7642  158.2570 C.3     1  UNL1        0.1081
     16 C         145.9115  142.2838  157.3095 C.3     1  UNL1        0.0938
     17 C         148.1117  141.7659  155.2821 C.3     1  UNL1        0.0188
     18 C         146.6644  141.6712  154.8996 C.3     1  UNL1        0.0722
     19 C         138.4137  143.2969  163.7293 C.2     1  UNL1        0.2592
     20 O         137.3806  144.3148  164.1122 O.2     1  UNL1       -0.2832
     21 C         138.5788  142.0512  164.5483 C.3     1  UNL1        0.0634
     22 C         137.5452  141.5829  163.5673 C.3     1  UNL1        0.0080
     23 C         139.5550  142.9521  165.2449 C.3     1  UNL1        0.0092
     24 C         140.3374  142.4447  166.4198 C.3     1  UNL1        0.0201
     25 C         140.1435  141.0362  166.8981 C.3     1  UNL1        0.0748
     26 C         139.1673  140.1353  166.2015 C.3     1  UNL1        0.0201
     27 C         138.3849  140.6428  165.0266 C.3     1  UNL1        0.0092
     28 N         140.9259  140.5288  168.0730 N.am    1  UNL1       -0.2723
     29 C         142.1434  139.6806  167.8534 C.2     1  UNL1        0.4017
     30 O         142.5786  139.3399  166.4589 O.2     1  UNL1       -0.2264
     31 H         140.6403  140.7524  168.9883 H       1  UNL1        0.1527
     32 O         142.9259  139.1732  169.0282 O.3     1  UNL1       -0.4306
     33 C         142.7429  139.8002  170.3786 C.3     1  UNL1        0.2573
@<TRIPOS>BOND
     1    17    18    1
     2    18    11    1
     3    11    12    1
     4    12    13    1
     5    13    14    1
     6    14     1    1
     7     1     2    2
     8     2     3    1
     9     3     4    2
    10     4     5    1
    11     5    19    1
    12    19    20    2
    13    19    21    1
    14    21    22    1
    15    21    23    1
    16    23    24    1
    17    24    25    1
    18    25    28    1
    19    28    29   am
    20    29    30    2
    21    29    32    1
    22    32    33    1
    23    25    26    1
    24    26    27    1
    25     5     6    2
    26     6     7    1
    27     7     8    1
    28     8     9    2
    29     9    10    1
    30    14    15    1
    31    15    16    1
    32    16    11    1
    33     9     1    1
    34     7     3    1
    35    27    21    1
    36    28    31    1
@<TRIPOS>MOLECULE
*****
 33 36 0 0 0
SMALL
GASTEIGER

@<TRIPOS>ATOM
      1 C         139.6887  143.5622  158.9406 C.2     1  UNL1        0.0620
      2 C         138.7389  142.4034  159.0121 C.2     1  UNL1        0.0622
      3 C         137.9347  142.0174  157.8062 C.2     1  UNL1        0.2254
      4 N         136.9266  140.9304  157.5779 N.2     1  UNL1       -0.0319
      5 C         136.4491  141.0314  156.1595 C.2     1  UNL1        0.4061
      6 N         137.1622  142.1808  155.5112 N.2     1  UNL1       -0.0486
      7 C         138.0803  142.7902  156.5288 C.3     1  UNL1        0.3025
      8 C         139.0301  143.9490  156.4575 C.2     1  UNL1        0.0474
      9 C         139.8343  144.3350  157.6634 C.2     1  UNL1        0.0714
     10 CL        140.7841  145.4938  157.5919 Cl      1  UNL1       -0.0811
     11 N         142.1013  144.7201  162.5585 N.3     1  UNL1       -0.2698
     12 C         142.6432  143.7148  161.5860 C.3     1  UNL1        0.0938
     13 C         141.8390  143.3288  160.3801 C.3     1  UNL1        0.1081
     14 N         140.4929  143.9482  160.1467 N.pl3   1  UNL1       -0.3039
     15 C         139.9511  144.9535  161.1191 C.3     1  UNL1        0.1081
     16 C         140.7553  145.3394  162.3251 C.3     1  UNL1        0.0938
     17 C         144.0059  144.2100  164.2503 C.3     1  UNL1        0.0188
     18 C         142.9055  145.1061  163.7644 C.3     1  UNL1        0.0722
     19 C         135.4365  140.1395  155.5045 C.2     1  UNL1        0.2592
     20 O         135.8824  138.9053  154.7780 O.2     1  UNL1       -0.2832
     21 C         133.9778  140.4819  155.5760 C.3     1  UNL1        0.0634
     22 C         134.3669  141.2544  154.3505 C.3     1  UNL1        0.0080
     23 C         134.0953  139.5904  156.7766 C.3     1  UNL1        0.0092
     24 C         132.8893  139.3096  157.6232 C.3     1  UNL1        0.0201
     25 C         131.5657  139.9202  157.2690 C.3     1  UNL1        0.0748
     26 C         131.4483  140.8116  156.0684 C.3     1  UNL1        0.0201
     27 C         132.6543  141.0925  155.2218 C.3     1  UNL1        0.0092
     28 N         130.3597  139.6394  158.1155 N.am    1  UNL1       -0.2723
     29 C         129.4938  138.4516  157.8168 C.2     1  UNL1        0.4017
     30 O         129.8340  137.5446  156.6715 O.2     1  UNL1       -0.2264
     31 H         130.1364  140.2347  158.8672 H       1  UNL1        0.1527
     32 O         128.2877  138.1706  158.6633 O.3     1  UNL1       -0.4306
     33 C         128.1709  138.7810  160.0285 C.3     1  UNL1        0.2573
@<TRIPOS>BOND
     1    17    18    1
     2    18    11    1
     3    11    12    1
     4    12    13    1
     5    13    14    1
     6    14     1    1
     7     1     2    2
     8     2     3    1
     9     3     4    2
    10     4     5    1
    11     5    19    1
    12    19    20    2
    13    19    21    1
    14    21    22    1
    15    21    23    1
    16    23    24    1
    17    24    25    1
    18    25    28    1
    19    28    29   am
    20    29    30    2
    21    29    32    1
    22    32    33    1
    23    25    26    1
    24    26    27    1
    25     5     6    2
    26     6     7    1
    27     7     8    1
    28     8     9    2
    29     9    10    1
    30    14    15    1
    31    15    16    1
    32    16    11    1
    33     9     1    1
    34     7     3    1
    35    27    21    1
    36    28    31    1
@<TRIPOS>MOLECULE
*****
 33 36 0 0 0
SMALL
GASTEIGER

@<TRIPOS>ATOM
      1 C         140.6157  139.2019  163.8077 C.2     1  UNL1        0.0620
      2 C         141.2375  139.7059  162.5390 C.2     1  UNL1        0.0622
      3 C         140.7109  139.2464  161.2117 C.2     1  UNL1        0.2254
      4 N         141.1180  139.5686  159.8044 N.2     1  UNL1       -0.0319
      5 C         140.2214  138.8042  158.8761 C.2     1  UNL1        0.4061
      6 N         139.2602  138.0096  159.7096 N.2     1  UNL1       -0.0486
      7 C         139.5628  138.2829  161.1532 C.3     1  UNL1        0.3025
      8 C         138.9411  137.7790  162.4218 C.2     1  UNL1        0.0474
      9 C         139.4676  138.2385  163.7491 C.2     1  UNL1        0.0714
     10 CL        138.8459  137.7345  165.0178 Cl      1  UNL1       -0.0811
     11 N         142.1953  140.5804  167.7895 N.3     1  UNL1       -0.2698
     12 C         142.7133  139.3139  167.1749 C.3     1  UNL1        0.0938
     13 C         142.1868  138.8545  165.8476 C.3     1  UNL1        0.1081
     14 N         141.1423  139.6614  165.1350 N.pl3   1  UNL1       -0.3039
     15 C         140.6243  140.9278  165.7497 C.3     1  UNL1        0.1081
     16 C         141.1508  141.3873  167.0769 C.3     1  UNL1        0.0938
     17 C         143.3097  142.4129  169.2558 C.3     1  UNL1        0.0188
     18 C         142.7218  141.0399  169.1168 C.3     1  UNL1        0.0722
     19 C         140.2763  138.8298  157.3773 C.2     1  UNL1        0.2592
     20 O         139.9873  140.1025  156.6379 O.2     1  UNL1       -0.2832
     21 C         140.6203  137.5828  156.6180 C.3     1  UNL1        0.0634
     22 C         139.2252  137.8155  156.1184 C.3     1  UNL1        0.0080
     23 C         141.8960  137.7832  157.3812 C.3     1  UNL1        0.0092
     24 C         143.0311  136.8174  157.2117 C.3     1  UNL1        0.0201
     25 C         142.8905  135.6512  156.2788 C.3     1  UNL1        0.0748
     26 C         141.6149  135.4509  155.5156 C.3     1  UNL1        0.0201
     27 C         140.4798  136.4166  155.6851 C.3     1  UNL1        0.0092
     28 N         144.0256  134.6854  156.1092 N.am    1  UNL1       -0.2723
     29 C         143.8807  133.2680  156.5781 C.2     1  UNL1        0.4017
     30 O         142.6007  132.8163  157.2165 O.2     1  UNL1       -0.2264
     31 H         144.8658  134.9818  155.6902 H       1  UNL1        0.1527
     32 O         145.0158  132.3021  156.4086 O.3     1  UNL1       -0.4306
     33 C         144.7388  130.8797  156.0214 C.3     1  UNL1        0.2573
@<TRIPOS>BOND
     1    17    18    1
     2    18    11    1
     3    11    12    1
     4    12    13    1
     5    13    14    1
     6    14     1    1
     7     1     2    2
     8     2     3    1
     9     3     4    2
    10     4     5    1
    11     5    19    1
    12    19    20    2
    13    19    21    1
    14    21    22    1
    15    21    23    1
    16    23    24    1
    17    24    25    1
    18    25    28    1
    19    28    29   am
    20    29    30    2
    21    29    32    1
    22    32    33    1
    23    25    26    1
    24    26    27    1
    25     5     6    2
    26     6     7    1
    27     7     8    1
    28     8     9    2
    29     9    10    1
    30    14    15    1
    31    15    16    1
    32    16    11    1
    33     9     1    1
    34     7     3    1
    35    27    21    1
    36    28    31    1
@<TRIPOS>MOLECULE
*****
 33 36 0 0 0
SMALL
GASTEIGER

@<TRIPOS>ATOM
      1 C         139.2506  142.1038  164.1228 C.2     1  UNL1        0.0620
      2 C         139.7358  141.3206  162.9390 C.2     1  UNL1        0.0622
      3 C         139.3179  141.7182  161.5543 C.2     1  UNL1        0.2254
      4 N         139.6339  141.1416  160.2061 N.2     1  UNL1       -0.0319
      5 C         138.9261  141.9660  159.1720 C.2     1  UNL1        0.4061
      6 N         138.1726  143.0520  159.8811 N.2     1  UNL1       -0.0486
      7 C         138.4148  142.8989  161.3535 C.3     1  UNL1        0.3025
      8 C         137.9296  143.6820  162.5372 C.2     1  UNL1        0.0474
      9 C         138.3475  143.2844  163.9219 C.2     1  UNL1        0.0714
     10 CL        137.8622  144.0676  165.1056 Cl      1  UNL1       -0.0811
     11 N         140.5043  140.9111  168.2768 N.3     1  UNL1       -0.2698
     12 C         139.6007  140.0171  167.4804 C.3     1  UNL1        0.0938
     13 C         139.1828  140.4147  166.0957 C.3     1  UNL1        0.1081
     14 N         139.6685  141.7062  165.5075 N.pl3   1  UNL1       -0.3039
     15 C         140.5721  142.6002  166.3039 C.3     1  UNL1        0.1081
     16 C         140.9900  142.2026  167.6886 C.3     1  UNL1        0.0938
     17 C         141.8975  139.3908  169.8572 C.3     1  UNL1        0.0188
     18 C         140.9223  140.5136  169.6614 C.3     1  UNL1        0.0722
     19 C         138.9649  141.7434  157.6891 C.2     1  UNL1        0.2592
     20 O         139.7185  140.5753  157.1255 O.2     1  UNL1       -0.2832
     21 C         138.2502  142.6889  156.7698 C.3     1  UNL1        0.0634
     22 C         137.1877  141.6450  156.9473 C.3     1  UNL1        0.0080
     23 C         139.5609  143.4044  156.9116 C.3     1  UNL1        0.0092
     24 C         139.7879  144.7029  156.1958 C.3     1  UNL1        0.0201
     25 C         138.7041  145.2858  155.3381 C.3     1  UNL1        0.0748
     26 C         137.3935  144.5703  155.1963 C.3     1  UNL1        0.0201
     27 C         137.1664  143.2718  155.9121 C.3     1  UNL1        0.0092
     28 N         138.9311  146.5843  154.6222 N.am    1  UNL1       -0.2723
     29 C         139.0112  147.8649  155.3991 C.2     1  UNL1        0.4017
     30 O         138.8642  147.8471  156.8918 O.2     1  UNL1       -0.2264
     31 H         139.0276  146.5960  153.6425 H       1  UNL1        0.1527
     32 O         139.2382  149.1635  154.6833 O.3     1  UNL1       -0.4306
     33 C         138.7700  150.4498  155.2966 C.3     1  UNL1        0.2573
@<TRIPOS>BOND
     1    17    18    1
     2    18    11    1
     3    11    12    1
     4    12    13    1
     5    13    14    1
     6    14     1    1
     7     1     2    2
     8     2     3    1
     9     3     4    2
    10     4     5    1
    11     5    19    1
    12    19    20    2
    13    19    21    1
    14    21    22    1
    15    21    23    1
    16    23    24    1
    17    24    25    1
    18    25    28    1
    19    28    29   am
    20    29    30    2
    21    29    32    1
    22    32    33    1
    23    25    26    1
    24    26    27    1
    25     5     6    2
    26     6     7    1
    27     7     8    1
    28     8     9    2
    29     9    10    1
    30    14    15    1
    31    15    16    1
    32    16    11    1
    33     9     1    1
    34     7     3    1
    35    27    21    1
    36    28    31    1
@<TRIPOS>MOLECULE
*****
 33 36 0 0 0
SMALL
GASTEIGER

@<TRIPOS>ATOM
      1 C         141.4693  143.5159  158.6211 C.2     1  UNL1        0.0620
      2 C         142.6413  143.7504  159.5275 C.2     1  UNL1        0.0622
      3 C         142.9544  142.7688  160.6176 C.2     1  UNL1        0.2254
      4 N         144.0353  142.7344  161.6571 N.2     1  UNL1       -0.0319
      5 C         143.8444  141.4971  162.4834 C.2     1  UNL1        0.4061
      6 N         142.6456  140.7669  161.9545 N.2     1  UNL1       -0.0486
      7 C         142.0956  141.5528  160.8014 C.3     1  UNL1        0.3025
      8 C         140.9236  141.3184  159.8950 C.2     1  UNL1        0.0474
      9 C         140.6105  142.2999  158.8049 C.2     1  UNL1        0.0714
     10 CL        139.4385  142.0654  157.8985 Cl      1  UNL1       -0.0811
     11 N         140.5299  146.4605  155.3504 N.3     1  UNL1       -0.2698
     12 C         141.4543  145.3103  155.0813 C.3     1  UNL1        0.0938
     13 C         141.7674  144.3288  156.1714 C.3     1  UNL1        0.1081
     14 N         141.1561  144.4975  157.5308 N.pl3   1  UNL1       -0.3039
     15 C         140.2317  145.6477  157.8000 C.3     1  UNL1        0.1081
     16 C         139.9186  146.6292  156.7098 C.3     1  UNL1        0.0938
     17 C         139.5081  148.7235  154.5857 C.3     1  UNL1        0.0188
     18 C         140.2167  147.4421  154.2603 C.3     1  UNL1        0.0722
     19 C         144.7018  141.0658  163.6361 C.2     1  UNL1        0.2592
     20 O         146.1057  141.5792  163.7599 O.2     1  UNL1       -0.2832
     21 C         144.1553  140.1210  164.6650 C.3     1  UNL1        0.0634
     22 C         144.8865  139.1520  163.7839 C.3     1  UNL1        0.0080
     23 C         143.6139  141.4181  165.1888 C.3     1  UNL1        0.0092
     24 C         142.7800  141.4339  166.4355 C.3     1  UNL1        0.0201
     25 C         142.4874  140.1525  167.1584 C.3     1  UNL1        0.0748
     26 C         143.0288  138.8555  166.6346 C.3     1  UNL1        0.0201
     27 C         143.8628  138.8396  165.3879 C.3     1  UNL1        0.0092
     28 N         141.6534  140.1684  168.4051 N.am    1  UNL1       -0.2723
     29 C         140.1665  139.9927  168.3150 C.2     1  UNL1        0.4017
     30 O         139.5135  139.8013  166.9782 O.2     1  UNL1       -0.2264
     31 H         142.0820  140.2940  169.2825 H       1  UNL1        0.1527
     32 O         139.3325  140.0086  169.5617 O.3     1  UNL1       -0.4306
     33 C         139.9938  140.0884  170.9056 C.3     1  UNL1        0.2573
@<TRIPOS>BOND
     1    17    18    1
     2    18    11    1
     3    11    12    1
     4    12    13    1
     5    13    14    1
     6    14     1    1
     7     1     2    2
     8     2     3    1
     9     3     4    2
    10     4     5    1
    11     5    19    1
    12    19    20    2
    13    19    21    1
    14    21    22    1
    15    21    23    1
    16    23    24    1
    17    24    25    1
    18    25    28    1
    19    28    29   am
    20    29    30    2
    21    29    32    1
    22    32    33    1
    23    25    26    1
    24    26    27    1
    25     5     6    2
    26     6     7    1
    27     7     8    1
    28     8     9    2
    29     9    10    1
    30    14    15    1
    31    15    16    1
    32    16    11    1
    33     9     1    1
    34     7     3    1
    35    27    21    1
    36    28    31    1
@<TRIPOS>MOLECULE
*****
 33 36 0 0 0
SMALL
GASTEIGER

@<TRIPOS>ATOM
      1 C         140.9681  142.2756  159.0792 C.2     1  UNL1        0.0620
      2 C         140.0888  141.7859  160.1915 C.2     1  UNL1        0.0622
      3 C         140.5589  140.6778  161.0866 C.2     1  UNL1        0.2254
      4 N         139.9173  139.9916  162.2560 N.2     1  UNL1       -0.0319
      5 C         140.8700  138.9491  162.7615 C.2     1  UNL1        0.4061
      6 N         142.1005  138.9911  161.9046 N.2     1  UNL1       -0.0486
      7 C         141.9082  140.0595  160.8694 C.3     1  UNL1        0.3025
      8 C         142.7874  140.5493  159.7572 C.2     1  UNL1        0.0474
      9 C         142.3173  141.6573  158.8621 C.2     1  UNL1        0.0714
     10 CL        143.1966  142.1470  157.7498 Cl      1  UNL1       -0.0811
     11 N         139.5579  145.5998  156.3938 N.3     1  UNL1       -0.2698
     12 C         139.2356  144.1745  156.0555 C.3     1  UNL1        0.0938
     13 C         139.7056  143.0665  156.9506 C.3     1  UNL1        0.1081
     14 N         140.4980  143.3837  158.1841 N.pl3   1  UNL1       -0.3039
     15 C         140.8204  144.8091  158.5224 C.3     1  UNL1        0.1081
     16 C         140.3503  145.9171  157.6273 C.3     1  UNL1        0.0938
     17 C         138.8266  148.0714  156.0670 C.3     1  UNL1        0.0188
     18 C         139.0879  146.7079  155.4988 C.3     1  UNL1        0.0722
     19 C         140.6338  138.0266  163.9204 C.2     1  UNL1        0.2592
     20 O         141.2833  136.6748  163.9475 O.2     1  UNL1       -0.2832
     21 C         139.7481  138.4559  165.0523 C.3     1  UNL1        0.0634
     22 C         138.8501  137.4583  164.3829 C.3     1  UNL1        0.0080
     23 C         140.9538  139.3045  165.3288 C.3     1  UNL1        0.0092
     24 C         140.9619  140.2359  166.5045 C.3     1  UNL1        0.0201
     25 C         139.7642  140.3187  167.4040 C.3     1  UNL1        0.0748
     26 C         138.5586  139.4702  167.1275 C.3     1  UNL1        0.0201
     27 C         138.5505  138.5388  165.9517 C.3     1  UNL1        0.0092
     28 N         139.7723  141.2501  168.5797 N.am    1  UNL1       -0.2723
     29 C         140.2270  140.7592  169.9222 C.2     1  UNL1        0.4017
     30 O         140.6735  139.3369  170.0889 O.2     1  UNL1       -0.2264
     31 H         139.4792  142.1835  168.4703 H       1  UNL1        0.1527
     32 O         140.2351  141.6905  171.0981 O.3     1  UNL1       -0.4306
     33 C         139.7232  143.0924  170.9481 C.3     1  UNL1        0.2573
@<TRIPOS>BOND
     1    17    18    1
     2    18    11    1
     3    11    12    1
     4    12    13    1
     5    13    14    1
     6    14     1    1
     7     1     2    2
     8     2     3    1
     9     3     4    2
    10     4     5    1
    11     5    19    1
    12    19    20    2
    13    19    21    1
    14    21    22    1
    15    21    23    1
    16    23    24    1
    17    24    25    1
    18    25    28    1
    19    28    29   am
    20    29    30    2
    21    29    32    1
    22    32    33    1
    23    25    26    1
    24    26    27    1
    25     5     6    2
    26     6     7    1
    27     7     8    1
    28     8     9    2
    29     9    10    1
    30    14    15    1
    31    15    16    1
    32    16    11    1
    33     9     1    1
    34     7     3    1
    35    27    21    1
    36    28    31    1
@<TRIPOS>MOLECULE
*****
 33 36 0 0 0
SMALL
GASTEIGER

@<TRIPOS>ATOM
      1 C         138.7972  146.1151  155.5982 C.2     1  UNL1        0.0620
      2 C         137.6226  145.4334  154.9613 C.2     1  UNL1        0.0622
      3 C         137.3099  144.0059  155.2996 C.2     1  UNL1        0.2254
      4 N         136.2269  143.0782  154.8343 N.2     1  UNL1       -0.0319
      5 C         136.4196  141.7591  155.5219 C.2     1  UNL1        0.4061
      6 N         137.6216  141.8715  156.4122 N.2     1  UNL1       -0.0486
      7 C         138.1719  143.2601  156.2748 C.3     1  UNL1        0.3025
      8 C         139.3464  143.9419  156.9117 C.2     1  UNL1        0.0474
      9 C         139.6591  145.3694  156.5733 C.2     1  UNL1        0.0714
     10 CL        140.8337  146.0511  157.2102 Cl      1  UNL1       -0.0811
     11 N         139.7352  150.3977  154.5833 N.3     1  UNL1       -0.2698
     12 C         138.8041  150.0820  155.7162 C.3     1  UNL1        0.0938
     13 C         138.4915  148.6545  156.0545 C.3     1  UNL1        0.1081
     14 N         139.1099  147.5427  155.2599 N.pl3   1  UNL1       -0.3039
     15 C         140.0410  147.8583  154.1270 C.3     1  UNL1        0.1081
     16 C         140.3536  149.2858  153.7887 C.3     1  UNL1        0.0938
     17 C         138.9602  152.8578  154.2713 C.3     1  UNL1        0.0188
     18 C         140.0479  151.8251  154.2449 C.3     1  UNL1        0.0722
     19 C         135.5609  140.5413  155.3496 C.2     1  UNL1        0.2592
     20 O         136.1932  139.2132  155.0556 O.2     1  UNL1       -0.2832
     21 C         134.0699  140.6515  155.4712 C.3     1  UNL1        0.0634
     22 C         134.2767  141.3508  154.1604 C.3     1  UNL1        0.0080
     23 C         134.3809  139.9139  156.7398 C.3     1  UNL1        0.0092
     24 C         133.2727  139.5295  157.6748 C.3     1  UNL1        0.0201
     25 C         131.8535  139.8826  157.3411 C.3     1  UNL1        0.0748
     26 C         131.5426  140.6201  156.0725 C.3     1  UNL1        0.0201
     27 C         132.6508  141.0046  155.1375 C.3     1  UNL1        0.0092
     28 N         130.7454  139.4981  158.2761 N.am    1  UNL1       -0.2723
     29 C         129.8295  138.3627  157.9269 C.2     1  UNL1        0.4017
     30 O         130.0219  137.6117  156.6427 O.2     1  UNL1       -0.2264
     31 H         130.6192  139.9910  159.1189 H       1  UNL1        0.1527
     32 O         128.7214  137.9781  158.8618 O.3     1  UNL1       -0.4306
     33 C         128.2378  138.9539  159.8933 C.3     1  UNL1        0.2573
@<TRIPOS>BOND
     1    17    18    1
     2    18    11    1
     3    11    12    1
     4    12    13    1
     5    13    14    1
     6    14     1    1
     7     1     2    2
     8     2     3    1
     9     3     4    2
    10     4     5    1
    11     5    19    1
    12    19    20    2
    13    19    21    1
    14    21    22    1
    15    21    23    1
    16    23    24    1
    17    24    25    1
    18    25    28    1
    19    28    29   am
    20    29    30    2
    21    29    32    1
    22    32    33    1
    23    25    26    1
    24    26    27    1
    25     5     6    2
    26     6     7    1
    27     7     8    1
    28     8     9    2
    29     9    10    1
    30    14    15    1
    31    15    16    1
    32    16    11    1
    33     9     1    1
    34     7     3    1
    35    27    21    1
    36    28    31    1
@<TRIPOS>MOLECULE
*****
 33 36 0 0 0
SMALL
GASTEIGER

@<TRIPOS>ATOM
      1 C         142.2286  139.9708  157.8877 C.2     1  UNL1        0.0620
      2 C         141.9728  140.1393  159.3562 C.2     1  UNL1        0.0622
      3 C         142.2524  141.4550  160.0200 C.2     1  UNL1        0.2254
      4 N         142.1000  141.9154  161.4394 N.2     1  UNL1       -0.0319
      5 C         142.5411  143.3472  161.5121 C.2     1  UNL1        0.4061
      6 N         142.9662  143.7717  160.1376 N.2     1  UNL1       -0.0486
      7 C         142.7877  142.6022  159.2154 C.3     1  UNL1        0.3025
      8 C         143.0434  142.4337  157.7470 C.2     1  UNL1        0.0474
      9 C         142.7639  141.1180  157.0832 C.2     1  UNL1        0.0714
     10 CL        143.0197  140.9495  155.6147 Cl      1  UNL1       -0.0811
     11 N         141.3899  136.0235  155.8962 N.3     1  UNL1       -0.2698
     12 C         140.3984  137.1439  155.7879 C.3     1  UNL1        0.0938
     13 C         140.6779  138.4596  156.4517 C.3     1  UNL1        0.1081
     14 N         141.9490  138.6550  157.2238 N.pl3   1  UNL1       -0.3039
     15 C         142.9405  137.5347  157.3321 C.3     1  UNL1        0.1081
     16 C         142.6610  136.2189  156.6683 C.3     1  UNL1        0.0938
     17 C         141.9006  133.4917  155.6154 C.3     1  UNL1        0.0188
     18 C         141.1104  134.7078  155.2324 C.3     1  UNL1        0.0722
     19 C         142.5549  144.2042  162.7431 C.2     1  UNL1        0.2592
     20 O         143.6837  145.1641  162.9762 O.2     1  UNL1       -0.2832
     21 C         141.4398  144.1012  163.7411 C.3     1  UNL1        0.0634
     22 C         140.8660  145.1322  162.8148 C.3     1  UNL1        0.0080
     23 C         142.4009  143.1061  164.3208 C.3     1  UNL1        0.0092
     24 C         142.0476  142.3659  165.5768 C.3     1  UNL1        0.0201
     25 C         140.7332  142.6211  166.2531 C.3     1  UNL1        0.0748
     26 C         139.7722  143.6162  165.6734 C.3     1  UNL1        0.0201
     27 C         140.1255  144.3563  164.4174 C.3     1  UNL1        0.0092
     28 N         140.3800  141.8810  167.5090 N.am    1  UNL1       -0.2723
     29 C         139.7924  140.5033  167.4276 C.2     1  UNL1        0.4017
     30 O         139.5580  139.8657  166.0902 O.2     1  UNL1       -0.2264
     31 H         140.5338  142.2994  168.3868 H       1  UNL1        0.1527
     32 O         139.4391  139.7631  168.6835 O.3     1  UNL1       -0.4306
     33 C         139.0841  140.5228  169.9272 C.3     1  UNL1        0.2573
@<TRIPOS>BOND
     1    17    18    1
     2    18    11    1
     3    11    12    1
     4    12    13    1
     5    13    14    1
     6    14     1    1
     7     1     2    2
     8     2     3    1
     9     3     4    2
    10     4     5    1
    11     5    19    1
    12    19    20    2
    13    19    21    1
    14    21    22    1
    15    21    23    1
    16    23    24    1
    17    24    25    1
    18    25    28    1
    19    28    29   am
    20    29    30    2
    21    29    32    1
    22    32    33    1
    23    25    26    1
    24    26    27    1
    25     5     6    2
    26     6     7    1
    27     7     8    1
    28     8     9    2
    29     9    10    1
    30    14    15    1
    31    15    16    1
    32    16    11    1
    33     9     1    1
    34     7     3    1
    35    27    21    1
    36    28    31    1
