@<TRIPOS>MOLECULE
*****
 36 40 0 0 0
SMALL
GASTEIGER

@<TRIPOS>ATOM
      1 C         137.7572  142.9008  163.1452 C.3     1  UNL1        0.2355
      2 O         137.8106  142.6089  161.6749 O.3     1  UNL1       -0.3290
      3 C         137.8434  141.1889  161.1928 C.3     1  UNL1        0.1629
      4 C         137.8228  140.0607  162.1812 C.3     1  UNL1        0.1144
      5 C         137.7693  140.3526  163.6515 C.3     1  UNL1        0.1629
      6 O         137.7365  141.7727  164.1336 O.3     1  UNL1       -0.3290
      7 N         137.8555  138.6406  161.6992 N.3     1  UNL1       -0.2895
      8 H         137.2562  138.5955  160.8750 H       1  UNL1        0.1237
      9 C         139.1613  138.0072  161.3202 C.3     1  UNL1        0.1153
     10 C         140.3755  138.2233  162.1740 C.ar    1  UNL1        0.0765
     11 C         140.5699  137.4119  163.4206 C.ar    1  UNL1        0.0193
     12 C         141.7841  137.6281  164.2744 C.ar    1  UNL1        0.0411
     13 C         142.8039  138.6555  163.8817 C.ar    1  UNL1        0.1708
     14 C         142.6096  139.4669  162.6351 C.ar    1  UNL1        0.1682
     15 N         141.3954  139.2508  161.7813 N.ar    1  UNL1       -0.2304
     16 N         143.6294  140.4943  162.2424 N.am    1  UNL1       -0.2639
     17 C         144.8436  140.7104  163.0962 C.2     1  UNL1        0.2718
     18 O         145.8634  141.7379  162.7035 O.2     1  UNL1       -0.2707
     19 C         145.0380  139.8991  164.3428 C.3     1  UNL1        0.2898
     20 O         144.0181  138.8716  164.7356 O.3     1  UNL1       -0.4628
     21 H         143.5019  141.0268  161.4242 H       1  UNL1        0.1565
     22 C         137.7244  144.3208  163.6273 C.3     1  UNL1        0.0661
     23 C         138.7524  144.8043  164.6069 C.3     1  UNL1        0.0355
     24 C         140.7673  141.8059  167.2901 C.ar    1  UNL1        0.2250
     25 C         142.2147  141.4699  167.0855 C.ar    1  UNL1        0.0593
     26 C         142.9906  142.1334  165.9864 C.ar    1  UNL1        0.0254
     27 C         142.3190  143.1328  165.0920 C.ar    1  UNL1        0.0990
     28 N         143.0948  143.7963  163.9930 N.ar    1  UNL1       -0.2400
     29 C         142.4232  144.7957  163.0986 C.ar    1  UNL1        0.1281
     30 C         140.9757  145.1318  163.3032 C.ar    1  UNL1        0.1567
     31 F         140.3041  146.1312  162.4088 F       1  UNL1       -0.2028
     32 C         140.1998  144.4683  164.4023 C.ar    1  UNL1        0.0262
     33 C         140.8715  143.4688  165.2967 C.ar    1  UNL1        0.1002
     34 N         140.0957  142.8053  166.3957 N.ar    1  UNL1       -0.2104
     35 C         139.2258  139.8828  168.1119 C.3     1  UNL1        0.2542
     36 O         139.9914  141.1424  168.3892 O.3     1  UNL1       -0.4561
@<TRIPOS>BOND
     1    35    36    1
     2    36    24    1
     3    24    25   ar
     4    25    26   ar
     5    26    27   ar
     6    27    28   ar
     7    28    29   ar
     8    29    30   ar
     9    30    31    1
    10    30    32   ar
    11    32    23    1
    12    23    22    1
    13     1    22    1
    14     1     2    1
    15     2     3    1
    16     3     4    1
    17     4     7    1
    18     7     9    1
    19     9    10    1
    20    10    11   ar
    21    11    12   ar
    22    12    13   ar
    23    13    14   ar
    24    14    15   ar
    25    14    16    1
    26    16    17   am
    27    17    18    2
    28    17    19    1
    29    19    20    1
    30     4     5    1
    31     5     6    1
    32    32    33   ar
    33    33    34   ar
    34    34    24   ar
    35    33    27   ar
    36     6     1    1
    37    15    10   ar
    38    20    13    1
    39     7     8    1
    40    16    21    1
@<TRIPOS>MOLECULE
*****
 36 40 0 0 0
SMALL
GASTEIGER

@<TRIPOS>ATOM
      1 C         141.8102  138.1404  164.1121 C.3     1  UNL1        0.2355
      2 O         142.5363  138.2305  162.8026 O.3     1  UNL1       -0.3290
      3 C         143.8006  139.0310  162.6997 C.3     1  UNL1        0.1629
      4 C         144.3389  139.7415  163.9062 C.3     1  UNL1        0.1144
      5 C         143.6127  139.6514  165.2156 C.3     1  UNL1        0.1629
      6 O         142.3483  138.8508  165.3185 O.3     1  UNL1       -0.3290
      7 N         145.6032  140.5420  163.8032 N.3     1  UNL1       -0.2895
      8 H         146.3175  139.9174  163.4289 H       1  UNL1        0.1237
      9 C         145.6363  141.7876  162.9681 C.3     1  UNL1        0.1153
     10 C         144.4833  142.7462  163.0050 C.ar    1  UNL1        0.0765
     11 C         144.0720  143.3751  164.3033 C.ar    1  UNL1        0.0193
     12 C         142.9189  144.3337  164.3402 C.ar    1  UNL1        0.0411
     13 C         142.1771  144.6636  163.0788 C.ar    1  UNL1        0.1708
     14 C         142.5884  144.0348  161.7806 C.ar    1  UNL1        0.1682
     15 N         143.7415  143.0761  161.7437 N.ar    1  UNL1       -0.2304
     16 N         141.8465  144.3646  160.5193 N.am    1  UNL1       -0.2639
     17 C         140.6935  145.3233  160.5562 C.2     1  UNL1        0.2718
     18 O         139.9517  145.6531  159.2949 O.2     1  UNL1       -0.2707
     19 C         140.2822  145.9521  161.8545 C.3     1  UNL1        0.2898
     20 O         141.0240  145.6223  163.1158 O.3     1  UNL1       -0.4628
     21 H         142.1165  143.9519  159.6672 H       1  UNL1        0.1565
     22 C         140.5459  137.3399  164.2150 C.3     1  UNL1        0.0661
     23 C         139.2582  138.0156  164.5831 C.3     1  UNL1        0.0355
     24 C         139.9126  142.1764  166.1672 C.ar    1  UNL1        0.2250
     25 C         139.4363  143.3617  165.3811 C.ar    1  UNL1        0.0593
     26 C         138.7417  143.1601  164.0670 C.ar    1  UNL1        0.0254
     27 C         138.5236  141.7732  163.5389 C.ar    1  UNL1        0.0990
     28 N         137.8291  141.5717  162.2247 N.ar    1  UNL1       -0.2400
     29 C         137.6109  140.1848  161.6967 C.ar    1  UNL1        0.1281
     30 C         138.0873  138.9994  162.4828 C.ar    1  UNL1        0.1567
     31 F         137.8691  137.6125  161.9547 F       1  UNL1       -0.2028
     32 C         138.7818  139.2009  163.7970 C.ar    1  UNL1        0.0262
     33 C         138.9999  140.5879  164.3250 C.ar    1  UNL1        0.1002
     34 N         139.6945  140.7895  165.6392 N.ar    1  UNL1       -0.2104
     35 C         142.0877  142.1621  167.5881 C.3     1  UNL1        0.2542
     36 O         140.6072  142.3779  167.4814 O.3     1  UNL1       -0.4561
@<TRIPOS>BOND
     1    35    36    1
     2    36    24    1
     3    24    25   ar
     4    25    26   ar
     5    26    27   ar
     6    27    28   ar
     7    28    29   ar
     8    29    30   ar
     9    30    31    1
    10    30    32   ar
    11    32    23    1
    12    23    22    1
    13     1    22    1
    14     1     2    1
    15     2     3    1
    16     3     4    1
    17     4     7    1
    18     7     9    1
    19     9    10    1
    20    10    11   ar
    21    11    12   ar
    22    12    13   ar
    23    13    14   ar
    24    14    15   ar
    25    14    16    1
    26    16    17   am
    27    17    18    2
    28    17    19    1
    29    19    20    1
    30     4     5    1
    31     5     6    1
    32    32    33   ar
    33    33    34   ar
    34    34    24   ar
    35    33    27   ar
    36     6     1    1
    37    15    10   ar
    38    20    13    1
    39     7     8    1
    40    16    21    1
@<TRIPOS>MOLECULE
*****
 36 40 0 0 0
SMALL
GASTEIGER

@<TRIPOS>ATOM
      1 C         142.5545  144.5781  163.5496 C.3     1  UNL1        0.2355
      2 O         142.4068  144.5220  162.0579 O.3     1  UNL1       -0.3290
      3 C         141.0548  144.3047  161.4458 C.3     1  UNL1        0.1629
      4 C         139.8504  144.1434  162.3253 C.3     1  UNL1        0.1144
      5 C         139.9981  144.1995  163.8170 C.3     1  UNL1        0.1629
      6 O         141.3502  144.4169  164.4291 O.3     1  UNL1       -0.3290
      7 N         138.4984  143.9261  161.7132 N.3     1  UNL1       -0.2895
      8 H         138.3838  144.6381  160.9918 H       1  UNL1        0.1237
      9 C         138.1657  142.6086  161.0779 C.3     1  UNL1        0.1153
     10 C         138.3603  141.3351  161.8461 C.ar    1  UNL1        0.0765
     11 C         138.8889  140.1143  161.1530 C.ar    1  UNL1        0.0193
     12 C         139.0835  138.8408  161.9212 C.ar    1  UNL1        0.0411
     13 C         138.7495  138.7880  163.3826 C.ar    1  UNL1        0.1708
     14 C         138.2209  140.0087  164.0758 C.ar    1  UNL1        0.1682
     15 N         138.0263  141.2823  163.3075 N.ar    1  UNL1       -0.2304
     16 N         137.8869  139.9558  165.5371 N.am    1  UNL1       -0.2639
     17 C         138.0815  138.6823  166.3054 C.2     1  UNL1        0.2718
     18 O         137.7475  138.6295  167.7668 O.2     1  UNL1       -0.2707
     19 C         138.6101  137.4615  165.6123 C.3     1  UNL1        0.2898
     20 O         138.9441  137.5144  164.1509 O.3     1  UNL1       -0.4628
     21 H         137.5400  140.7570  165.9921 H       1  UNL1        0.1565
     22 C         143.9065  144.7955  164.1617 C.3     1  UNL1        0.0661
     23 C         144.4826  143.7690  165.0916 C.3     1  UNL1        0.0355
     24 C         142.0032  141.4760  168.0656 C.ar    1  UNL1        0.2250
     25 C         141.7214  140.0197  167.8426 C.ar    1  UNL1        0.0593
     26 C         142.2660  139.3278  166.6283 C.ar    1  UNL1        0.0254
     27 C         143.0925  140.0921  165.6369 C.ar    1  UNL1        0.0990
     28 N         143.6371  139.4001  164.4226 N.ar    1  UNL1       -0.2400
     29 C         144.4635  140.1644  163.4313 C.ar    1  UNL1        0.1281
     30 C         144.7454  141.6208  163.6543 C.ar    1  UNL1        0.1567
     31 F         145.5719  142.3851  162.6630 F       1  UNL1       -0.2028
     32 C         144.2008  142.3128  164.8686 C.ar    1  UNL1        0.0262
     33 C         143.3743  141.5484  165.8599 C.ar    1  UNL1        0.1002
     34 N         142.8297  142.2403  167.0743 N.ar    1  UNL1       -0.2104
     35 C         140.4114  143.2314  169.1307 C.3     1  UNL1        0.2542
     36 O         141.4586  142.1680  169.2799 O.3     1  UNL1       -0.4561
@<TRIPOS>BOND
     1    35    36    1
     2    36    24    1
     3    24    25   ar
     4    25    26   ar
     5    26    27   ar
     6    27    28   ar
     7    28    29   ar
     8    29    30   ar
     9    30    31    1
    10    30    32   ar
    11    32    23    1
    12    23    22    1
    13     1    22    1
    14     1     2    1
    15     2     3    1
    16     3     4    1
    17     4     7    1
    18     7     9    1
    19     9    10    1
    20    10    11   ar
    21    11    12   ar
    22    12    13   ar
    23    13    14   ar
    24    14    15   ar
    25    14    16    1
    26    16    17   am
    27    17    18    2
    28    17    19    1
    29    19    20    1
    30     4     5    1
    31     5     6    1
    32    32    33   ar
    33    33    34   ar
    34    34    24   ar
    35    33    27   ar
    36     6     1    1
    37    15    10   ar
    38    20    13    1
    39     7     8    1
    40    16    21    1
@<TRIPOS>MOLECULE
*****
 36 40 0 0 0
SMALL
GASTEIGER

@<TRIPOS>ATOM
      1 C         144.5090  139.8618  163.5340 C.3     1  UNL1        0.2355
      2 O         144.1326  139.7846  162.0840 O.3     1  UNL1       -0.3290
      3 C         142.9847  138.9211  161.6521 C.3     1  UNL1        0.1629
      4 C         142.2131  138.1347  162.6701 C.3     1  UNL1        0.1144
      5 C         142.5895  138.2118  164.1200 C.3     1  UNL1        0.1629
      6 O         143.7375  139.0754  164.5520 O.3     1  UNL1       -0.3290
      7 N         141.0652  137.2712  162.2381 N.3     1  UNL1       -0.2895
      8 H         140.8352  136.6697  163.0292 H       1  UNL1        0.1237
      9 C         139.7814  137.9013  161.7857 C.3     1  UNL1        0.1153
     10 C         139.2506  139.1130  162.4928 C.ar    1  UNL1        0.0765
     11 C         138.6092  138.9735  163.8416 C.ar    1  UNL1        0.0193
     12 C         138.0785  140.1852  164.5487 C.ar    1  UNL1        0.0411
     13 C         138.1892  141.5365  163.9071 C.ar    1  UNL1        0.1708
     14 C         138.8306  141.6761  162.5583 C.ar    1  UNL1        0.1682
     15 N         139.3613  140.4643  161.8512 N.ar    1  UNL1       -0.2304
     16 N         138.9412  143.0274  161.9167 N.am    1  UNL1       -0.2639
     17 C         138.4105  144.2391  162.6238 C.2     1  UNL1        0.2718
     18 O         138.5212  145.5905  161.9822 O.2     1  UNL1       -0.2707
     19 C         137.7691  144.0996  163.9726 C.3     1  UNL1        0.2898
     20 O         137.6584  142.7483  164.6142 O.3     1  UNL1       -0.4628
     21 H         139.3622  143.1190  161.0315 H       1  UNL1        0.1565
     22 C         145.6569  140.7253  163.9659 C.3     1  UNL1        0.0661
     23 C         145.4186  142.1589  164.3377 C.3     1  UNL1        0.0355
     24 C         142.3493  141.6489  167.5887 C.ar    1  UNL1        0.2250
     25 C         140.9831  142.2475  167.4308 C.ar    1  UNL1        0.0593
     26 C         140.6399  143.0162  166.1893 C.ar    1  UNL1        0.0254
     27 C         141.6630  143.1862  165.1056 C.ar    1  UNL1        0.0990
     28 N         141.3198  143.9548  163.8641 N.ar    1  UNL1       -0.2400
     29 C         142.3429  144.1248  162.7804 C.ar    1  UNL1        0.1281
     30 C         143.7092  143.5262  162.9383 C.ar    1  UNL1        0.1567
     31 F         144.7323  143.6962  161.8546 F       1  UNL1       -0.2028
     32 C         144.0524  142.7575  164.1798 C.ar    1  UNL1        0.0262
     33 C         143.0292  142.5875  165.2635 C.ar    1  UNL1        0.1002
     34 N         143.3724  141.8189  166.5050 N.ar    1  UNL1       -0.2104
     35 C         141.7655  139.8130  169.3319 C.3     1  UNL1        0.2542
     36 O         142.6925  140.8802  168.8302 O.3     1  UNL1       -0.4561
@<TRIPOS>BOND
     1    35    36    1
     2    36    24    1
     3    24    25   ar
     4    25    26   ar
     5    26    27   ar
     6    27    28   ar
     7    28    29   ar
     8    29    30   ar
     9    30    31    1
    10    30    32   ar
    11    32    23    1
    12    23    22    1
    13     1    22    1
    14     1     2    1
    15     2     3    1
    16     3     4    1
    17     4     7    1
    18     7     9    1
    19     9    10    1
    20    10    11   ar
    21    11    12   ar
    22    12    13   ar
    23    13    14   ar
    24    14    15   ar
    25    14    16    1
    26    16    17   am
    27    17    18    2
    28    17    19    1
    29    19    20    1
    30     4     5    1
    31     5     6    1
    32    32    33   ar
    33    33    34   ar
    34    34    24   ar
    35    33    27   ar
    36     6     1    1
    37    15    10   ar
    38    20    13    1
    39     7     8    1
    40    16    21    1
@<TRIPOS>MOLECULE
*****
 36 40 0 0 0
SMALL
GASTEIGER

@<TRIPOS>ATOM
      1 C         144.4727  139.7721  163.8173 C.3     1  UNL1        0.2355
      2 O         143.5857  139.2741  164.9196 O.3     1  UNL1       -0.3290
      3 C         142.4338  138.3669  164.6034 C.3     1  UNL1        0.1629
      4 C         142.1688  137.9577  163.1848 C.3     1  UNL1        0.1144
      5 C         143.0558  138.4557  162.0825 C.3     1  UNL1        0.1629
      6 O         144.2078  139.3630  162.3987 O.3     1  UNL1       -0.3290
      7 N         141.0168  137.0506  162.8686 N.3     1  UNL1       -0.2895
      8 H         140.8509  136.4844  163.7007 H       1  UNL1        0.1237
      9 C         139.6928  137.6311  162.4688 C.3     1  UNL1        0.1153
     10 C         139.2447  138.9425  163.0428 C.ar    1  UNL1        0.0765
     11 C         138.6032  138.9880  164.3980 C.ar    1  UNL1        0.0193
     12 C         138.1551  140.2993  164.9720 C.ar    1  UNL1        0.0411
     13 C         138.3486  141.5652  164.1909 C.ar    1  UNL1        0.1708
     14 C         138.9902  141.5198  162.8358 C.ar    1  UNL1        0.1682
     15 N         139.4382  140.2083  162.2617 N.ar    1  UNL1       -0.2304
     16 N         139.1837  142.7857  162.0547 N.am    1  UNL1       -0.2639
     17 C         138.7356  144.0970  162.6288 C.2     1  UNL1        0.2718
     18 O         138.9292  145.3629  161.8477 O.2     1  UNL1       -0.2707
     19 C         138.0941  144.1425  163.9839 C.3     1  UNL1        0.2898
     20 O         137.9005  142.8766  164.7650 O.3     1  UNL1       -0.4628
     21 H         139.6048  142.7558  161.1653 H       1  UNL1        0.1565
     22 C         145.6246  140.6793  164.1335 C.3     1  UNL1        0.0661
     23 C         145.7686  141.9875  163.4137 C.3     1  UNL1        0.0355
     24 C         144.0134  142.2442  159.2781 C.ar    1  UNL1        0.2250
     25 C         142.8066  143.0990  159.0273 C.ar    1  UNL1        0.0593
     26 C         142.1849  143.8683  160.1550 C.ar    1  UNL1        0.0254
     27 C         142.7700  143.7827  161.5335 C.ar    1  UNL1        0.0990
     28 N         142.1483  144.5520  162.6612 N.ar    1  UNL1       -0.2400
     29 C         142.7334  144.4664  164.0397 C.ar    1  UNL1        0.1281
     30 C         143.9402  143.6116  164.2906 C.ar    1  UNL1        0.1567
     31 F         144.5252  143.5260  165.6691 F       1  UNL1       -0.2028
     32 C         144.5619  142.8423  163.1629 C.ar    1  UNL1        0.0262
     33 C         143.9767  142.9279  161.7843 C.ar    1  UNL1        0.1002
     34 N         144.5984  142.1586  160.6566 N.ar    1  UNL1       -0.2104
     35 C         145.3157  142.2044  157.0304 C.3     1  UNL1        0.2542
     36 O         144.6351  141.4749  158.1504 O.3     1  UNL1       -0.4561
@<TRIPOS>BOND
     1    35    36    1
     2    36    24    1
     3    24    25   ar
     4    25    26   ar
     5    26    27   ar
     6    27    28   ar
     7    28    29   ar
     8    29    30   ar
     9    30    31    1
    10    30    32   ar
    11    32    23    1
    12    23    22    1
    13     1    22    1
    14     1     2    1
    15     2     3    1
    16     3     4    1
    17     4     7    1
    18     7     9    1
    19     9    10    1
    20    10    11   ar
    21    11    12   ar
    22    12    13   ar
    23    13    14   ar
    24    14    15   ar
    25    14    16    1
    26    16    17   am
    27    17    18    2
    28    17    19    1
    29    19    20    1
    30     4     5    1
    31     5     6    1
    32    32    33   ar
    33    33    34   ar
    34    34    24   ar
    35    33    27   ar
    36     6     1    1
    37    15    10   ar
    38    20    13    1
    39     7     8    1
    40    16    21    1
@<TRIPOS>MOLECULE
*****
 36 40 0 0 0
SMALL
GASTEIGER

@<TRIPOS>ATOM
      1 C         137.9375  142.9102  163.5096 C.3     1  UNL1        0.2355
      2 O         138.1249  143.0135  162.0249 O.3     1  UNL1       -0.3290
      3 C         138.0959  141.7762  161.1774 C.3     1  UNL1        0.1629
      4 C         137.8796  140.4356  161.8145 C.3     1  UNL1        0.1144
      5 C         137.6922  140.3322  163.2992 C.3     1  UNL1        0.1629
      6 O         137.7212  141.5696  164.1467 O.3     1  UNL1       -0.3290
      7 N         137.8506  139.1983  160.9670 N.3     1  UNL1       -0.2895
      8 H         138.0109  139.4967  160.0049 H       1  UNL1        0.1237
      9 C         138.8123  138.0799  161.2395 C.3     1  UNL1        0.1153
     10 C         140.1804  138.3810  161.7759 C.ar    1  UNL1        0.0765
     11 C         141.2314  138.9532  160.8714 C.ar    1  UNL1        0.0193
     12 C         142.5994  139.2543  161.4078 C.ar    1  UNL1        0.0411
     13 C         142.9165  138.9833  162.8486 C.ar    1  UNL1        0.1708
     14 C         141.8656  138.4111  163.7531 C.ar    1  UNL1        0.1682
     15 N         140.4974  138.1100  163.2167 N.ar    1  UNL1       -0.2304
     16 N         142.1826  138.1401  165.1939 N.am    1  UNL1       -0.2639
     17 C         143.5507  138.4412  165.7303 C.2     1  UNL1        0.2718
     18 O         143.8678  138.1702  167.1712 O.2     1  UNL1       -0.2707
     19 C         144.6017  139.0134  164.8259 C.3     1  UNL1        0.2898
     20 O         144.2847  139.2845  163.3850 O.3     1  UNL1       -0.4628
     21 H         141.4928  137.7646  165.7875 H       1  UNL1        0.1565
     22 C         137.9665  144.1474  164.3571 C.3     1  UNL1        0.0661
     23 C         139.2761  144.6901  164.8476 C.3     1  UNL1        0.0355
     24 C         142.0283  144.3687  161.3019 C.ar    1  UNL1        0.2250
     25 C         143.2328  143.4771  161.3658 C.ar    1  UNL1        0.0593
     26 C         143.5200  142.6927  162.6117 C.ar    1  UNL1        0.0254
     27 C         142.6026  142.7998  163.7936 C.ar    1  UNL1        0.0990
     28 N         142.8898  142.0154  165.0394 N.ar    1  UNL1       -0.2400
     29 C         141.9724  142.1225  166.2213 C.ar    1  UNL1        0.1281
     30 C         140.7678  143.0141  166.1574 C.ar    1  UNL1        0.1567
     31 F         139.8505  143.1212  167.3393 F       1  UNL1       -0.2028
     32 C         140.4806  143.7985  164.9115 C.ar    1  UNL1        0.0262
     33 C         141.3981  143.6914  163.7296 C.ar    1  UNL1        0.1002
     34 N         141.1109  144.4758  162.4837 N.ar    1  UNL1       -0.2104
     35 C         140.3567  145.1634  159.4786 C.3     1  UNL1        0.2542
     36 O         141.7411  145.1532  160.0560 O.3     1  UNL1       -0.4561
@<TRIPOS>BOND
     1    35    36    1
     2    36    24    1
     3    24    25   ar
     4    25    26   ar
     5    26    27   ar
     6    27    28   ar
     7    28    29   ar
     8    29    30   ar
     9    30    31    1
    10    30    32   ar
    11    32    23    1
    12    23    22    1
    13     1    22    1
    14     1     2    1
    15     2     3    1
    16     3     4    1
    17     4     7    1
    18     7     9    1
    19     9    10    1
    20    10    11   ar
    21    11    12   ar
    22    12    13   ar
    23    13    14   ar
    24    14    15   ar
    25    14    16    1
    26    16    17   am
    27    17    18    2
    28    17    19    1
    29    19    20    1
    30     4     5    1
    31     5     6    1
    32    32    33   ar
    33    33    34   ar
    34    34    24   ar
    35    33    27   ar
    36     6     1    1
    37    15    10   ar
    38    20    13    1
    39     7     8    1
    40    16    21    1
@<TRIPOS>MOLECULE
*****
 36 40 0 0 0
SMALL
GASTEIGER

@<TRIPOS>ATOM
      1 C         141.8411  138.0482  164.6909 C.3     1  UNL1        0.2355
      2 O         141.9378  137.7594  163.2221 O.3     1  UNL1       -0.3290
      3 C         140.6906  137.6416  162.3972 C.3     1  UNL1        0.1629
      4 C         139.3466  137.8126  163.0410 C.3     1  UNL1        0.1144
      5 C         139.2498  138.1014  164.5097 C.3     1  UNL1        0.1629
      6 O         140.4971  138.2192  165.3347 O.3     1  UNL1       -0.3290
      7 N         138.0994  137.6948  162.2160 N.3     1  UNL1       -0.2895
      8 H         137.3195  137.6252  162.8697 H       1  UNL1        0.1237
      9 C         137.7458  138.7713  161.2332 C.3     1  UNL1        0.1153
     10 C         138.0358  140.2070  161.5567 C.ar    1  UNL1        0.0765
     11 C         137.2893  140.8922  162.6627 C.ar    1  UNL1        0.0193
     12 C         137.5793  142.3278  162.9862 C.ar    1  UNL1        0.0411
     13 C         138.6158  143.0784  162.2038 C.ar    1  UNL1        0.1708
     14 C         139.3623  142.3933  161.0978 C.ar    1  UNL1        0.1682
     15 N         139.0723  140.9575  160.7742 N.ar    1  UNL1       -0.2304
     16 N         140.3989  143.1438  160.3153 N.am    1  UNL1       -0.2639
     17 C         140.6889  144.5795  160.6388 C.2     1  UNL1        0.2718
     18 O         141.7254  145.3300  159.8563 O.2     1  UNL1       -0.2707
     19 C         139.9424  145.2647  161.7448 C.3     1  UNL1        0.2898
     20 O         138.9058  144.5141  162.5273 O.3     1  UNL1       -0.4628
     21 H         140.8888  142.6941  159.5894 H       1  UNL1        0.1565
     22 C         143.0883  138.1660  165.5158 C.3     1  UNL1        0.0661
     23 C         143.8665  139.4484  165.5198 C.3     1  UNL1        0.0355
     24 C         140.6323  142.0155  167.3084 C.ar    1  UNL1        0.2250
     25 C         140.1184  143.2070  166.5560 C.ar    1  UNL1        0.0593
     26 C         140.6827  143.5429  165.2074 C.ar    1  UNL1        0.0254
     27 C         141.7607  142.6872  164.6111 C.ar    1  UNL1        0.0990
     28 N         142.3249  143.0230  163.2625 N.ar    1  UNL1       -0.2400
     29 C         143.4030  142.1673  162.6663 C.ar    1  UNL1        0.1281
     30 C         143.9169  140.9757  163.4187 C.ar    1  UNL1        0.1567
     31 F         144.9950  140.1200  162.8225 F       1  UNL1       -0.2028
     32 C         143.3527  140.6399  164.7674 C.ar    1  UNL1        0.0262
     33 C         142.2746  141.4957  165.3636 C.ar    1  UNL1        0.1002
     34 N         141.7103  141.1598  166.7122 N.ar    1  UNL1       -0.2104
     35 C         140.2440  142.6325  169.8021 C.3     1  UNL1        0.2542
     36 O         140.0681  141.6797  168.6571 O.3     1  UNL1       -0.4561
@<TRIPOS>BOND
     1    35    36    1
     2    36    24    1
     3    24    25   ar
     4    25    26   ar
     5    26    27   ar
     6    27    28   ar
     7    28    29   ar
     8    29    30   ar
     9    30    31    1
    10    30    32   ar
    11    32    23    1
    12    23    22    1
    13     1    22    1
    14     1     2    1
    15     2     3    1
    16     3     4    1
    17     4     7    1
    18     7     9    1
    19     9    10    1
    20    10    11   ar
    21    11    12   ar
    22    12    13   ar
    23    13    14   ar
    24    14    15   ar
    25    14    16    1
    26    16    17   am
    27    17    18    2
    28    17    19    1
    29    19    20    1
    30     4     5    1
    31     5     6    1
    32    32    33   ar
    33    33    34   ar
    34    34    24   ar
    35    33    27   ar
    36     6     1    1
    37    15    10   ar
    38    20    13    1
    39     7     8    1
    40    16    21    1
@<TRIPOS>MOLECULE
*****
 36 40 0 0 0
SMALL
GASTEIGER

@<TRIPOS>ATOM
      1 C         141.8055  144.2766  164.0177 C.3     1  UNL1        0.2355
      2 O         142.2716  143.6059  165.2758 O.3     1  UNL1       -0.3290
      3 C         143.5699  142.8549  165.2886 C.3     1  UNL1        0.1629
      4 C         144.4023  142.7746  164.0433 C.3     1  UNL1        0.1144
      5 C         143.9362  143.4453  162.7852 C.3     1  UNL1        0.1629
      6 O         142.6378  144.1964  162.7724 O.3     1  UNL1       -0.3290
      7 N         145.7006  142.0235  164.0561 N.3     1  UNL1       -0.2895
      8 H         146.1707  142.2630  164.9291 H       1  UNL1        0.1237
      9 C         145.7022  140.5266  163.9600 C.3     1  UNL1        0.1153
     10 C         144.4079  139.7703  164.0128 C.ar    1  UNL1        0.0765
     11 C         144.0015  139.0662  165.2734 C.ar    1  UNL1        0.0193
     12 C         142.7072  138.3100  165.3262 C.ar    1  UNL1        0.0411
     13 C         141.8192  138.2577  164.1184 C.ar    1  UNL1        0.1708
     14 C         142.2256  138.9618  162.8578 C.ar    1  UNL1        0.1682
     15 N         143.5199  139.7181  162.8049 N.ar    1  UNL1       -0.2304
     16 N         141.3377  138.9096  161.6499 N.am    1  UNL1       -0.2639
     17 C         140.0434  138.1533  161.7027 C.2     1  UNL1        0.2718
     18 O         139.1554  138.1011  160.4949 O.2     1  UNL1       -0.2707
     19 C         139.6370  137.4492  162.9634 C.3     1  UNL1        0.2898
     20 O         140.5249  137.5014  164.1712 O.3     1  UNL1       -0.4628
     21 H         141.6044  139.3717  160.8226 H       1  UNL1        0.1565
     22 C         140.5071  145.0277  164.0049 C.3     1  UNL1        0.0661
     23 C         139.3327  144.5085  164.7803 C.3     1  UNL1        0.0355
     24 C         140.1356  141.0940  167.5992 C.ar    1  UNL1        0.2250
     25 C         139.5842  139.7309  167.3024 C.ar    1  UNL1        0.0593
     26 C         138.7652  139.5061  166.0660 C.ar    1  UNL1        0.0254
     27 C         138.4976  140.6442  165.1264 C.ar    1  UNL1        0.0990
     28 N         137.6786  140.4194  163.8899 N.ar    1  UNL1       -0.2400
     29 C         137.4110  141.5575  162.9503 C.ar    1  UNL1        0.1281
     30 C         137.9623  142.9206  163.2471 C.ar    1  UNL1        0.1567
     31 F         137.6947  144.0588  162.3075 F       1  UNL1       -0.2028
     32 C         138.7813  143.1455  164.4835 C.ar    1  UNL1        0.0262
     33 C         139.0489  142.0072  165.4231 C.ar    1  UNL1        0.1002
     34 N         139.8679  142.2321  166.6595 N.ar    1  UNL1       -0.2104
     35 C         141.7043  142.6055  169.0148 C.3     1  UNL1        0.2542
     36 O         140.9545  141.3188  168.8356 O.3     1  UNL1       -0.4561
@<TRIPOS>BOND
     1    35    36    1
     2    36    24    1
     3    24    25   ar
     4    25    26   ar
     5    26    27   ar
     6    27    28   ar
     7    28    29   ar
     8    29    30   ar
     9    30    31    1
    10    30    32   ar
    11    32    23    1
    12    23    22    1
    13     1    22    1
    14     1     2    1
    15     2     3    1
    16     3     4    1
    17     4     7    1
    18     7     9    1
    19     9    10    1
    20    10    11   ar
    21    11    12   ar
    22    12    13   ar
    23    13    14   ar
    24    14    15   ar
    25    14    16    1
    26    16    17   am
    27    17    18    2
    28    17    19    1
    29    19    20    1
    30     4     5    1
    31     5     6    1
    32    32    33   ar
    33    33    34   ar
    34    34    24   ar
    35    33    27   ar
    36     6     1    1
    37    15    10   ar
    38    20    13    1
    39     7     8    1
    40    16    21    1
@<TRIPOS>MOLECULE
*****
 36 40 0 0 0
SMALL
GASTEIGER

@<TRIPOS>ATOM
      1 C         141.6818  145.0133  162.5622 C.3     1  UNL1        0.2355
      2 O         142.5118  144.8550  163.8016 O.3     1  UNL1       -0.3290
      3 C         143.7265  143.9752  163.7834 C.3     1  UNL1        0.1629
      4 C         144.1112  143.2536  162.5259 C.3     1  UNL1        0.1144
      5 C         143.2812  143.4118  161.2865 C.3     1  UNL1        0.1629
      6 O         142.0664  144.2917  161.3047 O.3     1  UNL1       -0.3290
      7 N         145.3259  142.3737  162.5077 N.3     1  UNL1       -0.2895
      8 H         146.0828  142.9079  162.9344 H       1  UNL1        0.1237
      9 C         145.2965  141.0403  163.1941 C.3     1  UNL1        0.1153
     10 C         144.1198  140.1283  163.0110 C.ar    1  UNL1        0.0765
     11 C         144.1122  139.1291  161.8923 C.ar    1  UNL1        0.0193
     12 C         142.9355  138.2171  161.7092 C.ar    1  UNL1        0.0411
     13 C         141.7664  138.3042  162.6448 C.ar    1  UNL1        0.1708
     14 C         141.7739  139.3034  163.7635 C.ar    1  UNL1        0.1682
     15 N         142.9506  140.2155  163.9467 N.ar    1  UNL1       -0.2304
     16 N         140.6047  139.3906  164.6992 N.am    1  UNL1       -0.2639
     17 C         139.4280  138.4786  164.5161 C.2     1  UNL1        0.2718
     18 O         138.2588  138.5657  165.4517 O.2     1  UNL1       -0.2707
     19 C         139.4204  137.4793  163.3973 C.3     1  UNL1        0.2898
     20 O         140.5896  137.3922  162.4617 O.3     1  UNL1       -0.4628
     21 H         140.6096  140.0464  165.4334 H       1  UNL1        0.1565
     22 C         140.4671  145.8931  162.5804 C.3     1  UNL1        0.0661
     23 C         139.1499  145.3633  162.0963 C.3     1  UNL1        0.0355
     24 C         138.5635  141.9161  159.2637 C.ar    1  UNL1        0.2250
     25 C         138.0491  140.6036  159.7761 C.ar    1  UNL1        0.0593
     26 C         137.7301  140.4401  161.2326 C.ar    1  UNL1        0.0254
     27 C         137.9256  141.5891  162.1768 C.ar    1  UNL1        0.0990
     28 N         137.6066  141.4255  163.6333 N.ar    1  UNL1       -0.2400
     29 C         137.8020  142.5746  164.5775 C.ar    1  UNL1        0.1281
     30 C         138.3165  143.8872  164.0652 C.ar    1  UNL1        0.1567
     31 F         138.5119  145.0362  165.0094 F       1  UNL1       -0.2028
     32 C         138.6355  144.0507  162.6086 C.ar    1  UNL1        0.0262
     33 C         138.4400  142.9016  161.6644 C.ar    1  UNL1        0.1002
     34 N         138.7590  143.0651  160.2079 N.ar    1  UNL1       -0.2104
     35 C         139.1701  140.8740  156.9624 C.3     1  UNL1        0.2542
     36 O         138.8825  142.0796  157.8072 O.3     1  UNL1       -0.4561
@<TRIPOS>BOND
     1    35    36    1
     2    36    24    1
     3    24    25   ar
     4    25    26   ar
     5    26    27   ar
     6    27    28   ar
     7    28    29   ar
     8    29    30   ar
     9    30    31    1
    10    30    32   ar
    11    32    23    1
    12    23    22    1
    13     1    22    1
    14     1     2    1
    15     2     3    1
    16     3     4    1
    17     4     7    1
    18     7     9    1
    19     9    10    1
    20    10    11   ar
    21    11    12   ar
    22    12    13   ar
    23    13    14   ar
    24    14    15   ar
    25    14    16    1
    26    16    17   am
    27    17    18    2
    28    17    19    1
    29    19    20    1
    30     4     5    1
    31     5     6    1
    32    32    33   ar
    33    33    34   ar
    34    34    24   ar
    35    33    27   ar
    36     6     1    1
    37    15    10   ar
    38    20    13    1
    39     7     8    1
    40    16    21    1
