@<TRIPOS>MOLECULE
*****
 30 34 0 0 0
SMALL
GASTEIGER

@<TRIPOS>ATOM
      1 N         139.1970  140.9038  162.0686 N.3     1  UNL1       -0.2725
      2 C         137.9122  141.0096  162.8354 C.3     1  UNL1        0.0738
      3 C         137.9078  140.8127  164.3224 C.3     1  UNL1        0.0376
      4 C         139.1883  140.5101  165.0427 C.3     1  UNL1        0.0841
      5 C         140.4732  140.4043  164.2758 C.3     1  UNL1        0.0376
      6 C         140.4775  140.6012  162.7889 C.3     1  UNL1        0.0738
      7 N         139.1839  140.3132  166.5297 N.am    1  UNL1       -0.2423
      8 C         138.3752  139.2986  167.2823 C.2     1  UNL1        0.3309
      9 O         137.4289  138.3027  166.6801 O.2     1  UNL1       -0.2501
     10 N         138.6790  139.4546  168.7429 N.am    1  UNL1       -0.1647
     11 C         139.6755  140.5658  168.8930 C.2     1  UNL1        0.0706
     12 C         140.3390  141.1629  170.0985 C.3     1  UNL1        0.0705
     13 C         141.3146  142.2907  169.9361 C.2     1  UNL1       -0.0199
     14 C         141.6266  142.8213  168.5681 C.2     1  UNL1       -0.0029
     15 C         140.9631  142.2241  167.3627 C.2     1  UNL1        0.0156
     16 C         139.9875  141.0964  167.5251 C.2     1  UNL1        0.0668
     17 C         139.2013  141.1007  160.5816 C.3     1  UNL1        0.0739
     18 C         138.7260  142.3970  159.9953 C.3     1  UNL1        0.0392
     19 C         139.5344  143.6465  160.1836 C.3     1  UNL1        0.0997
     20 O         137.6616  144.5379  162.3511 O.2     1  UNL1       -0.2745
     21 C         139.1334  144.4417  162.6242 C.2     1  UNL1        0.2297
     22 C         139.6689  144.7912  163.9811 C.3     1  UNL1        0.0903
     23 C         141.1406  144.6950  164.2543 C.3     1  UNL1        0.0373
     24 C         142.0770  144.2493  163.1705 C.ar    1  UNL1       -0.0049
     25 C         143.5488  144.1531  163.4437 C.ar    1  UNL1        0.0177
     26 C         144.4851  143.7074  162.3599 C.ar    1  UNL1        0.0987
     27 N         143.9497  143.3578  161.0030 N.ar    1  UNL1       -0.2410
     28 C         142.4780  143.4540  160.7299 C.ar    1  UNL1        0.1134
     29 C         141.5416  143.8998  161.8136 C.ar    1  UNL1        0.0690
     30 N         140.0698  143.9960  161.5405 N.am    1  UNL1       -0.2574
@<TRIPOS>BOND
     1    20    21    2
     2    21    22    1
     3    22    23    1
     4    23    24    1
     5    24    25   ar
     6    25    26   ar
     7    26    27   ar
     8    27    28   ar
     9    28    29   ar
    10    29    30    1
    11    30    19    1
    12    19    18    1
    13    18    17    1
    14    17     1    1
    15     1     2    1
    16     2     3    1
    17     3     4    1
    18     4     7    1
    19     7     8   am
    20     8     9    2
    21     8    10    1
    22    10    11    2
    23    11    12    1
    24    12    13    1
    25    13    14    2
    26    14    15    1
    27    15    16    2
    28     4     5    1
    29     5     6    1
    30    30    21   am
    31     6     1    1
    32    29    24   ar
    33    16     7    1
    34    16    11    1
@<TRIPOS>MOLECULE
*****
 30 34 0 0 0
SMALL
GASTEIGER

@<TRIPOS>ATOM
      1 N         140.9164  140.0153  162.6723 N.3     1  UNL1       -0.2725
      2 C         142.2841  140.4783  163.0787 C.3     1  UNL1        0.0738
      3 C         142.6467  140.5613  164.5319 C.3     1  UNL1        0.0376
      4 C         141.6417  140.1812  165.5786 C.3     1  UNL1        0.0841
      5 C         140.2740  139.7182  165.1721 C.3     1  UNL1        0.0376
      6 C         139.9114  139.6353  163.7190 C.3     1  UNL1        0.0738
      7 N         142.0043  140.2642  167.0317 N.am    1  UNL1       -0.2423
      8 C         142.9049  139.3196  167.7710 C.2     1  UNL1        0.3309
      9 O         143.6011  138.1262  167.1870 O.2     1  UNL1       -0.2501
     10 N         142.9872  139.7779  169.1969 N.am    1  UNL1       -0.1647
     11 C         142.1374  141.0058  169.3389 C.2     1  UNL1        0.0706
     12 C         141.8382  141.8890  170.5138 C.3     1  UNL1        0.0705
     13 C         140.9316  143.0728  170.3506 C.2     1  UNL1       -0.0199
     14 C         140.3241  143.3734  169.0123 C.2     1  UNL1       -0.0029
     15 C         140.6233  142.4901  167.8375 C.2     1  UNL1        0.0156
     16 C         141.5299  141.3063  168.0007 C.2     1  UNL1        0.0668
     17 C         140.5539  139.9323  161.2192 C.3     1  UNL1        0.0739
     18 C         139.3159  140.6130  160.7150 C.3     1  UNL1        0.0392
     19 C         139.1986  142.1067  160.7884 C.3     1  UNL1        0.0997
     20 O         137.0000  142.0142  162.8274 O.2     1  UNL1       -0.2745
     21 C         138.2662  142.7622  163.1231 C.2     1  UNL1        0.2297
     22 C         138.4331  143.4639  164.4383 C.3     1  UNL1        0.0903
     23 C         139.6992  144.2118  164.7340 C.3     1  UNL1        0.0373
     24 C         140.7986  144.2580  163.7145 C.ar    1  UNL1       -0.0049
     25 C         142.0647  145.0059  164.0102 C.ar    1  UNL1        0.0177
     26 C         143.1640  145.0521  162.9907 C.ar    1  UNL1        0.0987
     27 N         142.9971  144.3504  161.6755 N.ar    1  UNL1       -0.2410
     28 C         141.7310  143.6025  161.3798 C.ar    1  UNL1        0.1134
     29 C         140.6317  143.5563  162.3993 C.ar    1  UNL1        0.0690
     30 N         139.3655  142.8084  162.1036 N.am    1  UNL1       -0.2574
@<TRIPOS>BOND
     1    20    21    2
     2    21    22    1
     3    22    23    1
     4    23    24    1
     5    24    25   ar
     6    25    26   ar
     7    26    27   ar
     8    27    28   ar
     9    28    29   ar
    10    29    30    1
    11    30    19    1
    12    19    18    1
    13    18    17    1
    14    17     1    1
    15     1     2    1
    16     2     3    1
    17     3     4    1
    18     4     7    1
    19     7     8   am
    20     8     9    2
    21     8    10    1
    22    10    11    2
    23    11    12    1
    24    12    13    1
    25    13    14    2
    26    14    15    1
    27    15    16    2
    28     4     5    1
    29     5     6    1
    30    30    21   am
    31     6     1    1
    32    29    24   ar
    33    16     7    1
    34    16    11    1
@<TRIPOS>MOLECULE
*****
 30 34 0 0 0
SMALL
GASTEIGER

@<TRIPOS>ATOM
      1 N         141.8594  140.3250  162.5551 N.3     1  UNL1       -0.2725
      2 C         143.1942  140.5361  163.2060 C.3     1  UNL1        0.0738
      3 C         143.3100  140.5222  164.7015 C.3     1  UNL1        0.0376
      4 C         142.0910  140.2972  165.5460 C.3     1  UNL1        0.0841
      5 C         140.7561  140.0860  164.8950 C.3     1  UNL1        0.0376
      6 C         140.6404  140.0999  163.3996 C.3     1  UNL1        0.0738
      7 N         142.2067  140.2833  167.0414 N.am    1  UNL1       -0.2423
      8 C         142.9371  139.2601  167.8597 C.2     1  UNL1        0.3309
      9 O         143.6799  138.0712  167.3263 O.2     1  UNL1       -0.2501
     10 N         142.7942  139.6345  169.3052 N.am    1  UNL1       -0.1647
     11 C         141.9755  140.8892  169.3803 C.2     1  UNL1        0.0706
     12 C         141.5137  141.7183  170.5418 C.3     1  UNL1        0.0705
     13 C         140.6888  142.9485  170.3044 C.2     1  UNL1       -0.0199
     14 C         140.3257  143.3494  168.9052 C.2     1  UNL1       -0.0029
     15 C         140.7875  142.5202  167.7437 C.2     1  UNL1        0.0156
     16 C         141.6124  141.2901  167.9812 C.2     1  UNL1        0.0668
     17 C         141.7437  140.3389  161.0596 C.3     1  UNL1        0.0739
     18 C         142.5078  141.3503  160.2576 C.3     1  UNL1        0.0392
     19 C         142.0641  142.7831  160.2390 C.3     1  UNL1        0.0997
     20 O         144.4529  143.8476  161.7088 O.2     1  UNL1       -0.2745
     21 C         143.0753  144.0606  162.2627 C.2     1  UNL1        0.2297
     22 C         142.8921  144.8058  163.5515 C.3     1  UNL1        0.0903
     23 C         141.5145  145.0187  164.1054 C.3     1  UNL1        0.0373
     24 C         140.3200  144.4864  163.3705 C.ar    1  UNL1       -0.0049
     25 C         138.9424  144.6994  163.9245 C.ar    1  UNL1        0.0177
     26 C         137.7481  144.1671  163.1896 C.ar    1  UNL1        0.0987
     27 N         137.9313  143.4219  161.9007 N.ar    1  UNL1       -0.2410
     28 C         139.3089  143.2089  161.3468 C.ar    1  UNL1        0.1134
     29 C         140.5032  143.7412  162.0817 C.ar    1  UNL1        0.0690
     30 N         141.8809  143.5283  161.5278 N.am    1  UNL1       -0.2574
@<TRIPOS>BOND
     1    20    21    2
     2    21    22    1
     3    22    23    1
     4    23    24    1
     5    24    25   ar
     6    25    26   ar
     7    26    27   ar
     8    27    28   ar
     9    28    29   ar
    10    29    30    1
    11    30    19    1
    12    19    18    1
    13    18    17    1
    14    17     1    1
    15     1     2    1
    16     2     3    1
    17     3     4    1
    18     4     7    1
    19     7     8   am
    20     8     9    2
    21     8    10    1
    22    10    11    2
    23    11    12    1
    24    12    13    1
    25    13    14    2
    26    14    15    1
    27    15    16    2
    28     4     5    1
    29     5     6    1
    30    30    21   am
    31     6     1    1
    32    29    24   ar
    33    16     7    1
    34    16    11    1
@<TRIPOS>MOLECULE
*****
 30 34 0 0 0
SMALL
GASTEIGER

@<TRIPOS>ATOM
      1 N         142.1115  139.9933  162.6964 N.3     1  UNL1       -0.2725
      2 C         140.8748  140.7740  163.0296 C.3     1  UNL1        0.0738
      3 C         140.4147  140.8785  164.4535 C.3     1  UNL1        0.0376
      4 C         141.1914  140.2022  165.5442 C.3     1  UNL1        0.0841
      5 C         142.4281  139.4215  165.2109 C.3     1  UNL1        0.0376
      6 C         142.8882  139.3170  163.7871 C.3     1  UNL1        0.0738
      7 N         140.7313  140.3067  166.9680 N.am    1  UNL1       -0.2423
      8 C         139.4763  139.7121  167.5349 C.2     1  UNL1        0.3309
      9 O         138.4610  138.9088  166.7775 O.2     1  UNL1       -0.2501
     10 N         139.4148  140.0620  168.9923 N.am    1  UNL1       -0.1647
     11 C         140.6319  140.8728  169.3261 C.2     1  UNL1        0.0706
     12 C         141.1043  141.4929  170.6075 C.3     1  UNL1        0.0705
     13 C         142.3905  142.2643  170.6380 C.2     1  UNL1       -0.0199
     14 C         143.2042  142.4155  169.3869 C.2     1  UNL1       -0.0029
     15 C         142.7317  141.7953  168.1054 C.2     1  UNL1        0.0156
     16 C         141.4456  141.0240  168.0750 C.2     1  UNL1        0.0668
     17 C         142.5716  139.8888  161.2726 C.3     1  UNL1        0.0739
     18 C         143.9512  140.3405  160.8951 C.3     1  UNL1        0.0392
     19 C         144.3118  141.7945  160.9725 C.3     1  UNL1        0.0997
     20 O         146.0735  141.3107  163.3521 O.2     1  UNL1       -0.2745
     21 C         144.9628  142.3157  163.4331 C.2     1  UNL1        0.2297
     22 C         144.7330  143.0787  164.7039 C.3     1  UNL1        0.0903
     23 C         143.6224  144.0836  164.7850 C.3     1  UNL1        0.0373
     24 C         142.7415  144.3255  163.5952 C.ar    1  UNL1       -0.0049
     25 C         141.6308  145.3304  163.6763 C.ar    1  UNL1        0.0177
     26 C         140.7500  145.5723  162.4865 C.ar    1  UNL1        0.0987
     27 N         140.9798  144.8093  161.2157 N.ar    1  UNL1       -0.2410
     28 C         142.0904  143.8044  161.1346 C.ar    1  UNL1        0.1134
     29 C         142.9713  143.5625  162.3244 C.ar    1  UNL1        0.0690
     30 N         144.0820  142.5575  162.2433 N.am    1  UNL1       -0.2574
@<TRIPOS>BOND
     1    20    21    2
     2    21    22    1
     3    22    23    1
     4    23    24    1
     5    24    25   ar
     6    25    26   ar
     7    26    27   ar
     8    27    28   ar
     9    28    29   ar
    10    29    30    1
    11    30    19    1
    12    19    18    1
    13    18    17    1
    14    17     1    1
    15     1     2    1
    16     2     3    1
    17     3     4    1
    18     4     7    1
    19     7     8   am
    20     8     9    2
    21     8    10    1
    22    10    11    2
    23    11    12    1
    24    12    13    1
    25    13    14    2
    26    14    15    1
    27    15    16    2
    28     4     5    1
    29     5     6    1
    30    30    21   am
    31     6     1    1
    32    29    24   ar
    33    16     7    1
    34    16    11    1
@<TRIPOS>MOLECULE
*****
 30 34 0 0 0
SMALL
GASTEIGER

@<TRIPOS>ATOM
      1 N         140.6458  139.4992  162.2975 N.3     1  UNL1       -0.2725
      2 C         140.8289  138.3422  163.2345 C.3     1  UNL1        0.0738
      3 C         140.6696  138.5417  164.7127 C.3     1  UNL1        0.0376
      4 C         140.3273  139.8982  165.2538 C.3     1  UNL1        0.0841
      5 C         140.1442  141.0552  164.3167 C.3     1  UNL1        0.0376
      6 C         140.3035  140.8556  162.8386 C.3     1  UNL1        0.0738
      7 N         140.1681  140.0978  166.7319 N.am    1  UNL1       -0.2423
      8 C         139.0448  139.5734  167.5763 C.2     1  UNL1        0.3309
      9 O         137.8835  138.7574  167.0910 O.2     1  UNL1       -0.2501
     10 N         139.2866  140.0082  168.9914 N.am    1  UNL1       -0.1647
     11 C         140.5594  140.8014  169.0215 C.2     1  UNL1        0.0706
     12 C         141.2926  141.4804  170.1401 C.3     1  UNL1        0.0705
     13 C         142.5708  142.2148  169.8622 C.2     1  UNL1       -0.0199
     14 C         143.1156  142.2701  168.4656 C.2     1  UNL1       -0.0029
     15 C         142.3822  141.5911  167.3471 C.2     1  UNL1        0.0156
     16 C         141.1042  140.8567  167.6250 C.2     1  UNL1        0.0668
     17 C         140.8050  139.2996  160.8194 C.3     1  UNL1        0.0739
     18 C         141.6305  140.2615  160.0174 C.3     1  UNL1        0.0392
     19 C         143.1117  140.3453  160.2397 C.3     1  UNL1        0.0997
     20 O         144.0910  137.9913  161.8208 O.2     1  UNL1       -0.2745
     21 C         144.1417  139.3677  162.4152 C.2     1  UNL1        0.2297
     22 C         144.6822  139.5669  163.8002 C.3     1  UNL1        0.0903
     23 C         144.7329  140.9432  164.3947 C.3     1  UNL1        0.0373
     24 C         144.2432  142.1202  163.6041 C.ar    1  UNL1       -0.0049
     25 C         144.2940  143.4964  164.1985 C.ar    1  UNL1        0.0177
     26 C         143.8044  144.6733  163.4080 C.ar    1  UNL1        0.0987
     27 N         143.2639  144.4740  162.0230 N.ar    1  UNL1       -0.2410
     28 C         143.2132  143.0978  161.4285 C.ar    1  UNL1        0.1134
     29 C         143.7028  141.9209  162.2191 C.ar    1  UNL1        0.0690
     30 N         143.6521  140.5446  161.6247 N.am    1  UNL1       -0.2574
@<TRIPOS>BOND
     1    20    21    2
     2    21    22    1
     3    22    23    1
     4    23    24    1
     5    24    25   ar
     6    25    26   ar
     7    26    27   ar
     8    27    28   ar
     9    28    29   ar
    10    29    30    1
    11    30    19    1
    12    19    18    1
    13    18    17    1
    14    17     1    1
    15     1     2    1
    16     2     3    1
    17     3     4    1
    18     4     7    1
    19     7     8   am
    20     8     9    2
    21     8    10    1
    22    10    11    2
    23    11    12    1
    24    12    13    1
    25    13    14    2
    26    14    15    1
    27    15    16    2
    28     4     5    1
    29     5     6    1
    30    30    21   am
    31     6     1    1
    32    29    24   ar
    33    16     7    1
    34    16    11    1
@<TRIPOS>MOLECULE
*****
 30 34 0 0 0
SMALL
GASTEIGER

@<TRIPOS>ATOM
      1 N         143.0228  141.6867  163.0790 N.3     1  UNL1       -0.2725
      2 C         142.1678  140.5001  163.4119 C.3     1  UNL1        0.0738
      3 C         141.9744  140.0927  164.8426 C.3     1  UNL1        0.0376
      4 C         142.6361  140.8721  165.9403 C.3     1  UNL1        0.0841
      5 C         143.4911  142.0588  165.6072 C.3     1  UNL1        0.0376
      6 C         143.6844  142.4660  164.1766 C.3     1  UNL1        0.0738
      7 N         142.4428  140.4649  167.3709 N.am    1  UNL1       -0.2423
      8 C         142.9539  139.2057  168.0059 C.2     1  UNL1        0.3309
      9 O         143.7481  138.1328  167.3218 O.2     1  UNL1       -0.2501
     10 N         142.5314  139.2079  169.4452 N.am    1  UNL1       -0.1647
     11 C         141.7591  140.4684  169.6997 C.2     1  UNL1        0.0706
     12 C         141.0987  141.0091  170.9332 C.3     1  UNL1        0.0705
     13 C         140.3835  142.3267  170.8847 C.2     1  UNL1       -0.0199
     14 C         140.3287  143.1036  169.6026 C.2     1  UNL1       -0.0029
     15 C         140.9891  142.5628  168.3692 C.2     1  UNL1        0.0156
     16 C         141.7043  141.2452  168.4177 C.2     1  UNL1        0.0668
     17 C         143.2161  142.0939  161.6483 C.3     1  UNL1        0.0739
     18 C         143.0055  143.5218  161.2400 C.3     1  UNL1        0.0392
     19 C         141.6257  144.1104  161.2546 C.3     1  UNL1        0.0997
     20 O         141.9015  145.6380  163.8218 O.2     1  UNL1       -0.2745
     21 C         140.8385  144.5886  163.6839 C.2     1  UNL1        0.2297
     22 C         139.9135  144.3031  164.8296 C.3     1  UNL1        0.0903
     23 C         138.8506  143.2537  164.6918 C.3     1  UNL1        0.0373
     24 C         138.7127  142.4898  163.4082 C.ar    1  UNL1       -0.0049
     25 C         137.6498  141.4405  163.2704 C.ar    1  UNL1        0.0177
     26 C         137.5119  140.6766  161.9868 C.ar    1  UNL1        0.0987
     27 N         138.4370  140.9622  160.8411 N.ar    1  UNL1       -0.2410
     28 C         139.4999  142.0116  160.9789 C.ar    1  UNL1        0.1134
     29 C         139.6377  142.7754  162.2625 C.ar    1  UNL1        0.0690
     30 N         140.7007  143.8248  162.4003 N.am    1  UNL1       -0.2574
@<TRIPOS>BOND
     1    20    21    2
     2    21    22    1
     3    22    23    1
     4    23    24    1
     5    24    25   ar
     6    25    26   ar
     7    26    27   ar
     8    27    28   ar
     9    28    29   ar
    10    29    30    1
    11    30    19    1
    12    19    18    1
    13    18    17    1
    14    17     1    1
    15     1     2    1
    16     2     3    1
    17     3     4    1
    18     4     7    1
    19     7     8   am
    20     8     9    2
    21     8    10    1
    22    10    11    2
    23    11    12    1
    24    12    13    1
    25    13    14    2
    26    14    15    1
    27    15    16    2
    28     4     5    1
    29     5     6    1
    30    30    21   am
    31     6     1    1
    32    29    24   ar
    33    16     7    1
    34    16    11    1
@<TRIPOS>MOLECULE
*****
 30 34 0 0 0
SMALL
GASTEIGER

@<TRIPOS>ATOM
      1 N         141.7959  140.2305  162.5054 N.3     1  UNL1       -0.2725
      2 C         142.1129  139.2290  163.5761 C.3     1  UNL1        0.0738
      3 C         142.3081  139.6820  164.9927 C.3     1  UNL1        0.0376
      4 C         142.1864  141.1365  165.3385 C.3     1  UNL1        0.0841
      5 C         141.8694  142.1380  164.2677 C.3     1  UNL1        0.0376
      6 C         141.6741  141.6850  162.8512 C.3     1  UNL1        0.0738
      7 N         142.3816  141.5895  166.7551 N.am    1  UNL1       -0.2423
      8 C         143.4340  142.5426  167.2388 C.2     1  UNL1        0.3309
      9 O         144.4760  143.2100  166.3910 O.2     1  UNL1       -0.2501
     10 N         143.2616  142.7111  168.7193 N.am    1  UNL1       -0.1647
     11 C         142.1025  141.8621  169.1506 C.2     1  UNL1        0.0706
     12 C         141.4722  141.6308  170.4919 C.3     1  UNL1        0.0705
     13 C         140.2978  140.7062  170.6192 C.2     1  UNL1       -0.0199
     14 C         139.7539  140.0130  169.4052 C.2     1  UNL1       -0.0029
     15 C         140.3844  140.2444  168.0639 C.2     1  UNL1        0.0156
     16 C         141.5587  141.1690  167.9366 C.2     1  UNL1        0.0668
     17 C         141.6007  139.7775  161.0888 C.3     1  UNL1        0.0739
     18 C         140.4699  138.8534  160.7460 C.3     1  UNL1        0.0392
     19 C         139.0584  139.2420  161.0726 C.3     1  UNL1        0.0997
     20 O         139.0534  137.2937  163.3539 O.2     1  UNL1       -0.2745
     21 C         138.7069  138.7330  163.5960 C.2     1  UNL1        0.2297
     22 C         138.3578  139.1981  164.9787 C.3     1  UNL1        0.0903
     23 C         138.0113  140.6372  165.2208 C.3     1  UNL1        0.0373
     24 C         138.0138  141.6114  164.0801 C.ar    1  UNL1       -0.0049
     25 C         137.6673  143.0506  164.3222 C.ar    1  UNL1        0.0177
     26 C         137.6698  144.0247  163.1816 C.ar    1  UNL1        0.0987
     27 N         138.0188  143.5596  161.7989 N.ar    1  UNL1       -0.2410
     28 C         138.3653  142.1205  161.5568 C.ar    1  UNL1        0.1134
     29 C         138.3628  141.1464  162.6974 C.ar    1  UNL1        0.0690
     30 N         138.7094  139.7071  162.4553 N.am    1  UNL1       -0.2574
@<TRIPOS>BOND
     1    20    21    2
     2    21    22    1
     3    22    23    1
     4    23    24    1
     5    24    25   ar
     6    25    26   ar
     7    26    27   ar
     8    27    28   ar
     9    28    29   ar
    10    29    30    1
    11    30    19    1
    12    19    18    1
    13    18    17    1
    14    17     1    1
    15     1     2    1
    16     2     3    1
    17     3     4    1
    18     4     7    1
    19     7     8   am
    20     8     9    2
    21     8    10    1
    22    10    11    2
    23    11    12    1
    24    12    13    1
    25    13    14    2
    26    14    15    1
    27    15    16    2
    28     4     5    1
    29     5     6    1
    30    30    21   am
    31     6     1    1
    32    29    24   ar
    33    16     7    1
    34    16    11    1
@<TRIPOS>MOLECULE
*****
 30 34 0 0 0
SMALL
GASTEIGER

@<TRIPOS>ATOM
      1 N         139.2029  139.6853  162.1852 N.3     1  UNL1       -0.2725
      2 C         138.1980  140.5755  162.8542 C.3     1  UNL1        0.0738
      3 C         138.1449  140.6541  164.3513 C.3     1  UNL1        0.0376
      4 C         139.0966  139.8425  165.1792 C.3     1  UNL1        0.0841
      5 C         140.1015  138.9522  164.5100 C.3     1  UNL1        0.0376
      6 C         140.1547  138.8736  163.0131 C.3     1  UNL1        0.0738
      7 N         139.0435  139.9210  166.6761 N.am    1  UNL1       -0.2423
      8 C         138.1395  139.1241  167.5693 C.2     1  UNL1        0.3309
      9 O         137.1300  138.1088  167.1223 O.2     1  UNL1       -0.2501
     10 N         138.4223  139.5209  168.9880 N.am    1  UNL1       -0.1647
     11 C         139.5011  140.5630  168.9716 C.2     1  UNL1        0.0706
     12 C         140.1834  141.3186  170.0731 C.3     1  UNL1        0.0705
     13 C         141.2497  142.3217  169.7459 C.2     1  UNL1       -0.0199
     14 C         141.6336  142.5690  168.3170 C.2     1  UNL1       -0.0029
     15 C         140.9512  141.8133  167.2155 C.2     1  UNL1        0.0156
     16 C         139.8850  140.8103  167.5428 C.2     1  UNL1        0.0668
     17 C         139.2560  139.6067  160.6882 C.3     1  UNL1        0.0739
     18 C         140.5461  139.8676  159.9688 C.3     1  UNL1        0.0392
     19 C         141.1898  141.2201  160.0498 C.3     1  UNL1        0.0997
     20 O         143.5700  140.0801  161.4764 O.2     1  UNL1       -0.2745
     21 C         142.7936  141.2053  162.0938 C.2     1  UNL1        0.2297
     22 C         143.2072  141.7605  163.4244 C.3     1  UNL1        0.0903
     23 C         142.4308  142.8856  164.0418 C.3     1  UNL1        0.0373
     24 C         141.2407  143.4556  163.3285 C.ar    1  UNL1       -0.0049
     25 C         140.4643  144.5808  163.9459 C.ar    1  UNL1        0.0177
     26 C         139.2742  145.1508  163.2326 C.ar    1  UNL1        0.0987
     27 N         138.8606  144.5956  161.9020 N.ar    1  UNL1       -0.2410
     28 C         139.6370  143.4705  161.2846 C.ar    1  UNL1        0.1134
     29 C         140.8270  142.9005  161.9979 C.ar    1  UNL1        0.0690
     30 N         141.6035  141.7753  161.3805 N.am    1  UNL1       -0.2574
@<TRIPOS>BOND
     1    20    21    2
     2    21    22    1
     3    22    23    1
     4    23    24    1
     5    24    25   ar
     6    25    26   ar
     7    26    27   ar
     8    27    28   ar
     9    28    29   ar
    10    29    30    1
    11    30    19    1
    12    19    18    1
    13    18    17    1
    14    17     1    1
    15     1     2    1
    16     2     3    1
    17     3     4    1
    18     4     7    1
    19     7     8   am
    20     8     9    2
    21     8    10    1
    22    10    11    2
    23    11    12    1
    24    12    13    1
    25    13    14    2
    26    14    15    1
    27    15    16    2
    28     4     5    1
    29     5     6    1
    30    30    21   am
    31     6     1    1
    32    29    24   ar
    33    16     7    1
    34    16    11    1
@<TRIPOS>MOLECULE
*****
 30 34 0 0 0
SMALL
GASTEIGER

@<TRIPOS>ATOM
      1 N         140.6987  141.3503  160.1220 N.3     1  UNL1       -0.2725
      2 C         141.6048  140.3704  160.8068 C.3     1  UNL1        0.0738
      3 C         141.2668  139.8691  162.1796 C.3     1  UNL1        0.0376
      4 C         140.0227  140.3476  162.8675 C.3     1  UNL1        0.0841
      5 C         139.1166  141.3275  162.1826 C.3     1  UNL1        0.0376
      6 C         139.4546  141.8288  160.8099 C.3     1  UNL1        0.0738
      7 N         139.6846  139.8464  164.2402 N.am    1  UNL1       -0.2423
      8 C         139.0291  138.5366  164.5639 C.2     1  UNL1        0.3309
      9 O         138.5964  137.4982  163.5717 O.2     1  UNL1       -0.2501
     10 N         138.8821  138.4476  166.0540 N.am    1  UNL1       -0.1647
     11 C         139.4468  139.7023  166.6513 C.2     1  UNL1        0.0706
     12 C         139.5735  140.1692  168.0711 C.3     1  UNL1        0.0705
     13 C         140.1962  141.5008  168.3700 C.2     1  UNL1       -0.0199
     14 C         140.6922  142.3654  167.2489 C.2     1  UNL1       -0.0029
     15 C         140.5655  141.8983  165.8291 C.2     1  UNL1        0.0156
     16 C         139.9428  140.5668  165.5303 C.2     1  UNL1        0.0668
     17 C         141.0368  141.8515  158.7493 C.3     1  UNL1        0.0739
     18 C         141.0811  143.3264  158.4792 C.3     1  UNL1        0.0392
     19 C         142.0362  144.1994  159.2379 C.3     1  UNL1        0.0997
     20 O         139.6993  145.8707  160.1014 O.2     1  UNL1       -0.2745
     21 C         140.6387  145.3081  161.1267 C.2     1  UNL1        0.2297
     22 C         140.4096  145.5812  162.5837 C.3     1  UNL1        0.0903
     23 C         141.3489  145.0187  163.6090 C.3     1  UNL1        0.0373
     24 C         142.5174  144.1830  163.1772 C.ar    1  UNL1       -0.0049
     25 C         143.4567  143.6205  164.2025 C.ar    1  UNL1        0.0177
     26 C         144.6252  142.7849  163.7707 C.ar    1  UNL1        0.0987
     27 N         144.8543  142.5118  162.3137 N.ar    1  UNL1       -0.2410
     28 C         143.9150  143.0743  161.2884 C.ar    1  UNL1        0.1134
     29 C         142.7465  143.9099  161.7202 C.ar    1  UNL1        0.0690
     30 N         141.8071  144.4725  160.6949 N.am    1  UNL1       -0.2574
@<TRIPOS>BOND
     1    20    21    2
     2    21    22    1
     3    22    23    1
     4    23    24    1
     5    24    25   ar
     6    25    26   ar
     7    26    27   ar
     8    27    28   ar
     9    28    29   ar
    10    29    30    1
    11    30    19    1
    12    19    18    1
    13    18    17    1
    14    17     1    1
    15     1     2    1
    16     2     3    1
    17     3     4    1
    18     4     7    1
    19     7     8   am
    20     8     9    2
    21     8    10    1
    22    10    11    2
    23    11    12    1
    24    12    13    1
    25    13    14    2
    26    14    15    1
    27    15    16    2
    28     4     5    1
    29     5     6    1
    30    30    21   am
    31     6     1    1
    32    29    24   ar
    33    16     7    1
    34    16    11    1
