@<TRIPOS>MOLECULE
*****
 34 37 0 0 0
SMALL
GASTEIGER

@<TRIPOS>ATOM
      1 N         141.4430  139.7851  166.8651 N.am    1  UNL1       -0.2653
      2 C         142.7535  139.7766  166.1353 C.3     1  UNL1        0.1210
      3 C         142.5448  139.0948  164.8156 C.ar    1  UNL1        0.0018
      4 C         143.4795  138.7967  163.6810 C.ar    1  UNL1       -0.0051
      5 C         142.9748  138.0856  162.4606 C.ar    1  UNL1       -0.0028
      6 C         141.5353  137.6727  162.3747 C.ar    1  UNL1       -0.0025
      7 C         140.6006  137.9708  163.5093 C.ar    1  UNL1        0.0040
      8 C         141.1053  138.6819  164.7297 C.ar    1  UNL1        0.0512
      9 C         140.4244  139.1085  165.9964 C.2     1  UNL1        0.2493
     10 O         138.9786  138.8958  166.3349 O.2     1  UNL1       -0.2699
     11 O         140.4500  142.1158  172.3039 O.2     1  UNL1       -0.2747
     12 C         140.6982  141.5331  170.9442 C.2     1  UNL1        0.2282
     13 C         139.9841  142.0893  169.7481 C.3     1  UNL1        0.0877
     14 C         140.2324  141.5066  168.3884 C.3     1  UNL1        0.0388
     15 C         141.1948  140.3678  168.2248 C.3     1  UNL1        0.1531
     16 C         141.9088  139.8116  169.4209 C.2     1  UNL1        0.2462
     17 O         142.8712  138.6727  169.2573 O.2     1  UNL1       -0.2729
     18 N         141.6606  140.3943  170.7806 N.am    1  UNL1       -0.2540
     19 H         142.1293  140.0292  171.5657 H       1  UNL1        0.1576
     20 C         143.9096  137.7874  161.3259 C.3     1  UNL1        0.1165
     21 N         143.3799  137.1946  160.0539 N.am    1  UNL1       -0.2957
     22 C         142.9629  138.0906  158.9255 C.2     1  UNL1        0.2881
     23 O         143.0756  139.5795  159.0691 O.2     1  UNL1       -0.2688
     24 H         143.3060  136.2174  159.9596 H       1  UNL1        0.1499
     25 C         142.4333  137.4977  157.6535 C.3     1  UNL1        0.3489
     26 F         141.8536  138.8283  157.2747 F       1  UNL1       -0.1898
     27 F         143.0130  136.1671  158.0322 F       1  UNL1       -0.1898
     28 C         141.9036  136.9049  156.3815 C.ar    1  UNL1        0.0465
     29 C         140.4584  137.0768  156.0187 C.ar    1  UNL1        0.0023
     30 C         139.9287  136.4840  154.7467 C.ar    1  UNL1        0.0113
     31 C         140.8443  135.7193  153.8374 C.ar    1  UNL1        0.0577
     32 CL        140.3147  135.1264  152.5654 Cl      1  UNL1       -0.0822
     33 C         142.2897  135.5474  154.2002 C.ar    1  UNL1        0.0113
     34 C         142.8193  136.1402  155.4722 C.ar    1  UNL1        0.0023
@<TRIPOS>BOND
     1    11    12    2
     2    12    13    1
     3    13    14    1
     4    14    15    1
     5    15     1    1
     6     1     2    1
     7     2     3    1
     8     3     4   ar
     9     4     5   ar
    10     5    20    1
    11    20    21    1
    12    21    22   am
    13    22    23    2
    14    22    25    1
    15    25    26    1
    16    25    27    1
    17    25    28    1
    18    28    29   ar
    19    29    30   ar
    20    30    31   ar
    21    31    32    1
    22    31    33   ar
    23    33    34   ar
    24     5     6   ar
    25     6     7   ar
    26     7     8   ar
    27     8     9    1
    28     9    10    2
    29    15    16    1
    30    16    17    2
    31    16    18   am
    32    18    12   am
    33     9     1   am
    34     8     3   ar
    35    34    28   ar
    36    21    24    1
    37    18    19    1
@<TRIPOS>MOLECULE
*****
 34 37 0 0 0
SMALL
GASTEIGER

@<TRIPOS>ATOM
      1 N         142.4457  140.6788  166.8050 N.am    1  UNL1       -0.2653
      2 C         142.1891  139.3782  166.1031 C.3     1  UNL1        0.1210
      3 C         142.8904  139.4204  164.7778 C.ar    1  UNL1        0.0018
      4 C         142.9898  138.4221  163.6627 C.ar    1  UNL1       -0.0051
      5 C         143.7792  138.7506  162.4302 C.ar    1  UNL1       -0.0028
      6 C         144.4692  140.0774  162.3130 C.ar    1  UNL1       -0.0025
      7 C         144.3698  141.0756  163.4281 C.ar    1  UNL1        0.0040
      8 C         143.5804  140.7471  164.6605 C.ar    1  UNL1        0.0512
      9 C         143.3055  141.5248  165.9134 C.2     1  UNL1        0.2493
     10 O         143.8031  142.9061  166.2207 O.2     1  UNL1       -0.2699
     11 O         140.3929  142.2256  172.2266 O.2     1  UNL1       -0.2747
     12 C         140.9061  141.8389  170.8712 C.2     1  UNL1        0.2282
     13 C         140.5946  142.6944  169.6791 C.3     1  UNL1        0.0877
     14 C         141.1078  142.3077  168.3237 C.3     1  UNL1        0.0388
     15 C         141.9325  141.0655  168.1604 C.3     1  UNL1        0.1531
     16 C         142.2440  140.2100  169.3524 C.2     1  UNL1        0.2462
     17 O         143.0688  138.9677  169.1891 O.2     1  UNL1       -0.2729
     18 N         141.7308  140.5967  170.7078 N.am    1  UNL1       -0.2540
     19 H         141.9353  140.0352  171.4902 H       1  UNL1        0.1576
     20 C         143.8787  137.7524  161.3150 C.3     1  UNL1        0.1165
     21 N         142.7867  137.6610  160.2907 N.am    1  UNL1       -0.2957
     22 C         142.8579  138.4897  159.0425 C.2     1  UNL1        0.2881
     23 O         144.0211  139.4100  158.8186 O.2     1  UNL1       -0.2688
     24 H         142.0233  137.0570  160.4376 H       1  UNL1        0.1499
     25 C         141.7659  138.3983  158.0182 C.3     1  UNL1        0.3489
     26 F         142.3669  137.1292  157.4908 F       1  UNL1       -0.1898
     27 F         141.1649  139.6674  158.5456 F       1  UNL1       -0.1898
     28 C         140.6739  138.3069  156.9939 C.ar    1  UNL1        0.0465
     29 C         140.4172  137.0102  156.2850 C.ar    1  UNL1        0.0023
     30 C         139.3252  136.9188  155.2607 C.ar    1  UNL1        0.0113
     31 C         138.4899  138.1240  154.9453 C.ar    1  UNL1        0.0577
     32 CL        137.3979  138.0326  153.9210 Cl      1  UNL1       -0.0822
     33 C         138.7466  139.4208  155.6542 C.ar    1  UNL1        0.0113
     34 C         139.8386  139.5123  156.6786 C.ar    1  UNL1        0.0023
@<TRIPOS>BOND
     1    11    12    2
     2    12    13    1
     3    13    14    1
     4    14    15    1
     5    15     1    1
     6     1     2    1
     7     2     3    1
     8     3     4   ar
     9     4     5   ar
    10     5    20    1
    11    20    21    1
    12    21    22   am
    13    22    23    2
    14    22    25    1
    15    25    26    1
    16    25    27    1
    17    25    28    1
    18    28    29   ar
    19    29    30   ar
    20    30    31   ar
    21    31    32    1
    22    31    33   ar
    23    33    34   ar
    24     5     6   ar
    25     6     7   ar
    26     7     8   ar
    27     8     9    1
    28     9    10    2
    29    15    16    1
    30    16    17    2
    31    16    18   am
    32    18    12   am
    33     9     1   am
    34     8     3   ar
    35    34    28   ar
    36    21    24    1
    37    18    19    1
@<TRIPOS>MOLECULE
*****
 34 37 0 0 0
SMALL
GASTEIGER

@<TRIPOS>ATOM
      1 N         141.3373  140.4625  166.4077 N.am    1  UNL1       -0.2653
      2 C         140.6577  141.0082  165.1869 C.3     1  UNL1        0.1210
      3 C         141.2017  140.2844  163.9910 C.ar    1  UNL1        0.0018
      4 C         140.9033  140.4012  162.5256 C.ar    1  UNL1       -0.0051
      5 C         141.6208  139.5251  161.5420 C.ar    1  UNL1       -0.0028
      6 C         142.6366  138.5321  162.0237 C.ar    1  UNL1       -0.0025
      7 C         142.9350  138.4152  163.4891 C.ar    1  UNL1        0.0040
      8 C         142.2175  139.2914  164.4727 C.ar    1  UNL1        0.0512
      9 C         142.3013  139.4015  165.9663 C.2     1  UNL1        0.2493
     10 O         143.1927  138.5926  166.8614 O.2     1  UNL1       -0.2699
     11 O         140.3694  142.2161  172.0635 O.2     1  UNL1       -0.2747
     12 C         140.6114  141.7777  170.6496 C.2     1  UNL1        0.2282
     13 C         141.7885  142.3130  169.8894 C.3     1  UNL1        0.0877
     14 C         142.0304  141.8746  168.4754 C.3     1  UNL1        0.0388
     15 C         141.0953  140.9009  167.8217 C.3     1  UNL1        0.1531
     16 C         139.9182  140.3657  168.5818 C.2     1  UNL1        0.2462
     17 O         138.9830  139.3919  167.9281 O.2     1  UNL1       -0.2729
     18 N         139.6763  140.8041  169.9958 N.am    1  UNL1       -0.2540
     19 H         138.9037  140.4527  170.4947 H       1  UNL1        0.1576
     20 C         141.3224  139.6419  160.0766 C.3     1  UNL1        0.1165
     21 N         141.3629  138.4228  159.2035 N.am    1  UNL1       -0.2957
     22 C         142.5477  138.1734  158.3182 C.2     1  UNL1        0.2881
     23 O         143.6922  139.1430  158.3059 O.2     1  UNL1       -0.2688
     24 H         140.6117  137.7865  159.2115 H       1  UNL1        0.1499
     25 C         142.5882  136.9543  157.4451 C.3     1  UNL1        0.3489
     26 F         142.0615  137.7605  156.2950 F       1  UNL1       -0.1898
     27 F         143.1149  136.1481  158.5951 F       1  UNL1       -0.1898
     28 C         142.6286  135.7353  156.5720 C.ar    1  UNL1        0.0465
     29 C         143.7909  134.7908  156.6560 C.ar    1  UNL1        0.0023
     30 C         143.8313  133.5718  155.7829 C.ar    1  UNL1        0.0113
     31 C         142.7095  133.2972  154.8258 C.ar    1  UNL1        0.0577
     32 CL        142.7500  132.0782  153.9527 Cl      1  UNL1       -0.0822
     33 C         141.5472  134.2417  154.7417 C.ar    1  UNL1        0.0113
     34 C         141.5068  135.4608  155.6148 C.ar    1  UNL1        0.0023
@<TRIPOS>BOND
     1    11    12    2
     2    12    13    1
     3    13    14    1
     4    14    15    1
     5    15     1    1
     6     1     2    1
     7     2     3    1
     8     3     4   ar
     9     4     5   ar
    10     5    20    1
    11    20    21    1
    12    21    22   am
    13    22    23    2
    14    22    25    1
    15    25    26    1
    16    25    27    1
    17    25    28    1
    18    28    29   ar
    19    29    30   ar
    20    30    31   ar
    21    31    32    1
    22    31    33   ar
    23    33    34   ar
    24     5     6   ar
    25     6     7   ar
    26     7     8   ar
    27     8     9    1
    28     9    10    2
    29    15    16    1
    30    16    17    2
    31    16    18   am
    32    18    12   am
    33     9     1   am
    34     8     3   ar
    35    34    28   ar
    36    21    24    1
    37    18    19    1
@<TRIPOS>MOLECULE
*****
 34 37 0 0 0
SMALL
GASTEIGER

@<TRIPOS>ATOM
      1 N         140.2004  144.0727  159.4618 N.am    1  UNL1       -0.2653
      2 C         139.2476  142.9257  159.2991 C.3     1  UNL1        0.1210
      3 C         138.6709  142.9946  157.9161 C.ar    1  UNL1        0.0018
      4 C         137.6798  142.1278  157.1976 C.ar    1  UNL1       -0.0051
      5 C         137.2851  142.4507  155.7870 C.ar    1  UNL1       -0.0028
      6 C         137.8814  143.6404  155.0949 C.ar    1  UNL1       -0.0025
      7 C         138.8725  144.5072  155.8135 C.ar    1  UNL1        0.0040
      8 C         139.2673  144.1843  157.2241 C.ar    1  UNL1        0.0512
      9 C         140.2125  144.8506  158.1793 C.2     1  UNL1        0.2493
     10 O         141.0269  146.0791  157.9010 O.2     1  UNL1       -0.2699
     11 O         143.4010  145.3288  164.3790 O.2     1  UNL1       -0.2747
     12 C         142.6008  145.0148  163.1497 C.2     1  UNL1        0.2282
     13 C         143.0660  143.9470  162.2045 C.3     1  UNL1        0.0877
     14 C         142.2659  143.6330  160.9752 C.3     1  UNL1        0.0388
     15 C         141.0006  144.3867  160.6911 C.3     1  UNL1        0.1531
     16 C         140.5354  145.4545  161.6363 C.2     1  UNL1        0.2462
     17 O         139.2699  146.2083  161.3523 O.2     1  UNL1       -0.2729
     18 N         141.3355  145.7685  162.8656 N.am    1  UNL1       -0.2540
     19 H         141.0302  146.4693  163.4860 H       1  UNL1        0.1576
     20 C         136.2939  141.5839  155.0684 C.3     1  UNL1        0.1165
     21 N         134.9176  141.3917  155.6330 N.am    1  UNL1       -0.2957
     22 C         134.3313  140.0143  155.7274 C.2     1  UNL1        0.2881
     23 O         135.1213  138.8290  155.2571 O.2     1  UNL1       -0.2688
     24 H         134.3991  142.1696  155.9417 H       1  UNL1        0.1499
     25 C         132.9550  139.8220  156.2921 C.3     1  UNL1        0.3489
     26 F         133.3462  138.4592  156.7816 F       1  UNL1       -0.1898
     27 F         132.5638  141.1849  155.8025 F       1  UNL1       -0.1898
     28 C         131.5787  139.6298  156.8567 C.ar    1  UNL1        0.0465
     29 C         131.3592  138.6681  157.9867 C.ar    1  UNL1        0.0023
     30 C         129.9829  138.4759  158.5513 C.ar    1  UNL1        0.0113
     31 C         128.8261  139.2453  157.9860 C.ar    1  UNL1        0.0577
     32 CL        127.4498  139.0531  158.5507 Cl      1  UNL1       -0.0822
     33 C         129.0455  140.2071  156.8560 C.ar    1  UNL1        0.0113
     34 C         130.4218  140.3993  156.2913 C.ar    1  UNL1        0.0023
@<TRIPOS>BOND
     1    11    12    2
     2    12    13    1
     3    13    14    1
     4    14    15    1
     5    15     1    1
     6     1     2    1
     7     2     3    1
     8     3     4   ar
     9     4     5   ar
    10     5    20    1
    11    20    21    1
    12    21    22   am
    13    22    23    2
    14    22    25    1
    15    25    26    1
    16    25    27    1
    17    25    28    1
    18    28    29   ar
    19    29    30   ar
    20    30    31   ar
    21    31    32    1
    22    31    33   ar
    23    33    34   ar
    24     5     6   ar
    25     6     7   ar
    26     7     8   ar
    27     8     9    1
    28     9    10    2
    29    15    16    1
    30    16    17    2
    31    16    18   am
    32    18    12   am
    33     9     1   am
    34     8     3   ar
    35    34    28   ar
    36    21    24    1
    37    18    19    1
@<TRIPOS>MOLECULE
*****
 34 37 0 0 0
SMALL
GASTEIGER

@<TRIPOS>ATOM
      1 N         139.3172  139.4745  162.8561 N.am    1  UNL1       -0.2653
      2 C         140.3585  138.7180  162.0858 C.3     1  UNL1        0.1210
      3 C         140.1040  138.9370  160.6239 C.ar    1  UNL1        0.0018
      4 C         140.8088  138.4395  159.3968 C.ar    1  UNL1       -0.0051
      5 C         140.3149  138.8340  158.0365 C.ar    1  UNL1       -0.0028
      6 C         139.1163  139.7259  157.9033 C.ar    1  UNL1       -0.0025
      7 C         138.4115  140.2234  159.1303 C.ar    1  UNL1        0.0040
      8 C         138.9053  139.8289  160.4907 C.ar    1  UNL1        0.0512
      9 C         138.4191  140.1611  161.8702 C.2     1  UNL1        0.2493
     10 O         137.2415  141.0277  162.2051 O.2     1  UNL1       -0.2699
     11 O         138.8301  139.7125  168.8316 O.2     1  UNL1       -0.2747
     12 C         138.9518  139.6530  167.3377 C.2     1  UNL1        0.2282
     13 C         138.3617  138.4992  166.5825 C.3     1  UNL1        0.0877
     14 C         138.4834  138.4397  165.0886 C.3     1  UNL1        0.0388
     15 C         139.1954  139.5340  164.3500 C.3     1  UNL1        0.1531
     16 C         139.7856  140.6878  165.1052 C.2     1  UNL1        0.2462
     17 O         140.4977  141.7821  164.3666 O.2     1  UNL1       -0.2729
     18 N         139.6638  140.7472  166.5991 N.am    1  UNL1       -0.2540
     19 H         140.0512  141.5045  167.0948 H       1  UNL1        0.1576
     20 C         141.0197  138.3365  156.8094 C.3     1  UNL1        0.1165
     21 N         141.4348  136.8982  156.7141 N.am    1  UNL1       -0.2957
     22 C         142.8776  136.5464  156.5030 C.2     1  UNL1        0.2881
     23 O         143.9054  137.6329  156.3872 O.2     1  UNL1       -0.2688
     24 H         140.7603  136.1851  156.7901 H       1  UNL1        0.1499
     25 C         143.2927  135.1081  156.4077 C.3     1  UNL1        0.3489
     26 F         143.2711  135.0028  157.9038 F       1  UNL1       -0.1898
     27 F         143.3143  135.2135  154.9116 F       1  UNL1       -0.1898
     28 C         143.7077  133.6699  156.3124 C.ar    1  UNL1        0.0465
     29 C         143.3964  132.8797  155.0760 C.ar    1  UNL1        0.0023
     30 C         143.8115  131.4415  154.9807 C.ar    1  UNL1        0.0113
     31 C         144.5379  130.7933  156.1218 C.ar    1  UNL1        0.0577
     32 CL        144.9530  129.3550  156.0265 Cl      1  UNL1       -0.0822
     33 C         144.8493  131.5834  157.3583 C.ar    1  UNL1        0.0113
     34 C         144.4342  133.0217  157.4536 C.ar    1  UNL1        0.0023
@<TRIPOS>BOND
     1    11    12    2
     2    12    13    1
     3    13    14    1
     4    14    15    1
     5    15     1    1
     6     1     2    1
     7     2     3    1
     8     3     4   ar
     9     4     5   ar
    10     5    20    1
    11    20    21    1
    12    21    22   am
    13    22    23    2
    14    22    25    1
    15    25    26    1
    16    25    27    1
    17    25    28    1
    18    28    29   ar
    19    29    30   ar
    20    30    31   ar
    21    31    32    1
    22    31    33   ar
    23    33    34   ar
    24     5     6   ar
    25     6     7   ar
    26     7     8   ar
    27     8     9    1
    28     9    10    2
    29    15    16    1
    30    16    17    2
    31    16    18   am
    32    18    12   am
    33     9     1   am
    34     8     3   ar
    35    34    28   ar
    36    21    24    1
    37    18    19    1
@<TRIPOS>MOLECULE
*****
 34 37 0 0 0
SMALL
GASTEIGER

@<TRIPOS>ATOM
      1 N         142.2023  140.9389  166.7622 N.am    1  UNL1       -0.2653
      2 C         142.0161  141.7506  165.5146 C.3     1  UNL1        0.1210
      3 C         142.6554  141.0081  164.3788 C.ar    1  UNL1        0.0018
      4 C         142.7833  141.3249  162.9183 C.ar    1  UNL1       -0.0051
      5 C         143.4926  140.3711  162.0033 C.ar    1  UNL1       -0.0028
      6 C         144.0739  139.1005  162.5490 C.ar    1  UNL1       -0.0025
      7 C         143.9460  138.7838  164.0095 C.ar    1  UNL1        0.0040
      8 C         143.2368  139.7376  164.9245 C.ar    1  UNL1        0.0512
      9 C         142.9567  139.6948  166.3975 C.2     1  UNL1        0.2493
     10 O         143.3603  138.6001  167.3402 O.2     1  UNL1       -0.2699
     11 O         140.2689  142.4103  172.2483 O.2     1  UNL1       -0.2747
     12 C         140.7523  142.0424  170.8768 C.2     1  UNL1        0.2282
     13 C         139.9304  141.1349  170.0103 C.3     1  UNL1        0.0877
     14 C         140.4138  140.7670  168.6388 C.3     1  UNL1        0.0388
     15 C         141.7189  141.3068  168.1338 C.3     1  UNL1        0.1531
     16 C         142.5408  142.2144  169.0002 C.2     1  UNL1        0.2462
     17 O         143.8460  142.7542  168.4952 O.2     1  UNL1       -0.2729
     18 N         142.0574  142.5822  170.3718 N.am    1  UNL1       -0.2540
     19 H         142.5969  143.1779  170.9404 H       1  UNL1        0.1576
     20 C         143.6205  140.6877  160.5427 C.3     1  UNL1        0.1165
     21 N         143.6837  139.5765  159.5371 N.am    1  UNL1       -0.2957
     22 C         142.4278  138.8710  159.1190 C.2     1  UNL1        0.2881
     23 O         141.1086  139.2767  159.7065 O.2     1  UNL1       -0.2688
     24 H         144.5496  139.3103  159.1515 H       1  UNL1        0.1499
     25 C         142.4911  137.7598  158.1134 C.3     1  UNL1        0.3489
     26 F         143.2015  136.8958  159.1128 F       1  UNL1       -0.1898
     27 F         141.7806  138.6238  157.1140 F       1  UNL1       -0.1898
     28 C         142.5543  136.6486  157.1078 C.ar    1  UNL1        0.0465
     29 C         143.1180  135.3146  157.4986 C.ar    1  UNL1        0.0023
     30 C         143.1813  134.2034  156.4930 C.ar    1  UNL1        0.0113
     31 C         142.6808  134.4262  155.0966 C.ar    1  UNL1        0.0577
     32 CL        142.7441  133.3150  154.0910 Cl      1  UNL1       -0.0822
     33 C         142.1170  135.7602  154.7058 C.ar    1  UNL1        0.0113
     34 C         142.0538  136.8714  155.7114 C.ar    1  UNL1        0.0023
@<TRIPOS>BOND
     1    11    12    2
     2    12    13    1
     3    13    14    1
     4    14    15    1
     5    15     1    1
     6     1     2    1
     7     2     3    1
     8     3     4   ar
     9     4     5   ar
    10     5    20    1
    11    20    21    1
    12    21    22   am
    13    22    23    2
    14    22    25    1
    15    25    26    1
    16    25    27    1
    17    25    28    1
    18    28    29   ar
    19    29    30   ar
    20    30    31   ar
    21    31    32    1
    22    31    33   ar
    23    33    34   ar
    24     5     6   ar
    25     6     7   ar
    26     7     8   ar
    27     8     9    1
    28     9    10    2
    29    15    16    1
    30    16    17    2
    31    16    18   am
    32    18    12   am
    33     9     1   am
    34     8     3   ar
    35    34    28   ar
    36    21    24    1
    37    18    19    1
@<TRIPOS>MOLECULE
*****
 34 37 0 0 0
SMALL
GASTEIGER

@<TRIPOS>ATOM
      1 N         140.9718  139.5870  166.0248 N.am    1  UNL1       -0.2653
      2 C         142.0278  140.0558  165.0682 C.3     1  UNL1        0.1210
      3 C         141.7150  139.4857  163.7165 C.ar    1  UNL1        0.0018
      4 C         142.4064  139.6082  162.3910 C.ar    1  UNL1       -0.0051
      5 C         141.8484  138.9095  161.1867 C.ar    1  UNL1       -0.0028
      6 C         140.5991  138.0883  161.3079 C.ar    1  UNL1       -0.0025
      7 C         139.9077  137.9657  162.6333 C.ar    1  UNL1        0.0040
      8 C         140.4657  138.6644  163.8377 C.ar    1  UNL1        0.0512
      9 C         140.0064  138.7271  165.2642 C.2     1  UNL1        0.2493
     10 O         138.7944  138.0488  165.8308 O.2     1  UNL1       -0.2699
     11 O         140.6637  140.9176  171.8673 O.2     1  UNL1       -0.2747
     12 C         140.7408  140.5850  170.4066 C.2     1  UNL1        0.2282
     13 C         139.6174  140.9687  169.4898 C.3     1  UNL1        0.0877
     14 C         139.6944  140.6361  168.0292 C.3     1  UNL1        0.0388
     15 C         140.8948  139.9196  167.4854 C.3     1  UNL1        0.1531
     16 C         142.0182  139.5359  168.4023 C.2     1  UNL1        0.2462
     17 O         143.2187  138.8194  167.8585 O.2     1  UNL1       -0.2729
     18 N         141.9412  139.8685  169.8629 N.am    1  UNL1       -0.2540
     19 H         142.6785  139.6166  170.4647 H       1  UNL1        0.1576
     20 C         142.5398  139.0320  159.8611 C.3     1  UNL1        0.1165
     21 N         142.6909  137.8276  158.9799 N.am    1  UNL1       -0.2957
     22 C         141.9916  137.7761  157.6539 C.2     1  UNL1        0.2881
     23 O         141.1413  138.9289  157.2091 O.2     1  UNL1       -0.2688
     24 H         143.2490  137.0710  159.2719 H       1  UNL1        0.1499
     25 C         142.1427  136.5716  156.7727 C.3     1  UNL1        0.3489
     26 F         143.1853  136.0231  157.7011 F       1  UNL1       -0.1898
     27 F         141.1000  137.1202  155.8442 F       1  UNL1       -0.1898
     28 C         142.2937  135.3672  155.8915 C.ar    1  UNL1        0.0465
     29 C         142.7238  134.0564  156.4802 C.ar    1  UNL1        0.0023
     30 C         142.8749  132.8520  155.5989 C.ar    1  UNL1        0.0113
     31 C         142.5958  132.9584  154.1290 C.ar    1  UNL1        0.0577
     32 CL        142.7468  131.7540  153.2478 Cl      1  UNL1       -0.0822
     33 C         142.1656  134.2693  153.5402 C.ar    1  UNL1        0.0113
     34 C         142.0146  135.4737  154.4215 C.ar    1  UNL1        0.0023
@<TRIPOS>BOND
     1    11    12    2
     2    12    13    1
     3    13    14    1
     4    14    15    1
     5    15     1    1
     6     1     2    1
     7     2     3    1
     8     3     4   ar
     9     4     5   ar
    10     5    20    1
    11    20    21    1
    12    21    22   am
    13    22    23    2
    14    22    25    1
    15    25    26    1
    16    25    27    1
    17    25    28    1
    18    28    29   ar
    19    29    30   ar
    20    30    31   ar
    21    31    32    1
    22    31    33   ar
    23    33    34   ar
    24     5     6   ar
    25     6     7   ar
    26     7     8   ar
    27     8     9    1
    28     9    10    2
    29    15    16    1
    30    16    17    2
    31    16    18   am
    32    18    12   am
    33     9     1   am
    34     8     3   ar
    35    34    28   ar
    36    21    24    1
    37    18    19    1
@<TRIPOS>MOLECULE
*****
 34 37 0 0 0
SMALL
GASTEIGER

@<TRIPOS>ATOM
      1 N         141.4635  139.7980  166.8452 N.am    1  UNL1       -0.2653
      2 C         142.7508  139.8410  166.0764 C.3     1  UNL1        0.1210
      3 C         142.5360  139.1313  164.7725 C.ar    1  UNL1        0.0018
      4 C         143.4499  138.8615  163.6141 C.ar    1  UNL1       -0.0051
      5 C         142.9438  138.1099  162.4188 C.ar    1  UNL1       -0.0028
      6 C         141.5238  137.6282  162.3817 C.ar    1  UNL1       -0.0025
      7 C         140.6098  137.8981  163.5401 C.ar    1  UNL1        0.0040
      8 C         141.1159  138.6496  164.7354 C.ar    1  UNL1        0.0512
      9 C         140.4531  139.0616  166.0165 C.2     1  UNL1        0.2493
     10 O         139.0298  138.7857  166.4011 O.2     1  UNL1       -0.2699
     11 O         140.5216  142.1569  172.2811 O.2     1  UNL1       -0.2747
     12 C         140.7571  141.5671  170.9221 C.2     1  UNL1        0.2282
     13 C         140.0513  142.1339  169.7260 C.3     1  UNL1        0.0877
     14 C         140.2868  141.5442  168.3671 C.3     1  UNL1        0.0388
     15 C         141.2280  140.3877  168.2042 C.3     1  UNL1        0.1531
     16 C         141.9338  139.8209  169.4003 C.2     1  UNL1        0.2462
     17 O         142.8751  138.6644  169.2374 O.2     1  UNL1       -0.2729
     18 N         141.6983  140.4107  170.7592 N.am    1  UNL1       -0.2540
     19 H         142.1615  140.0386  171.5443 H       1  UNL1        0.1576
     20 C         143.8578  137.8401  161.2603 C.3     1  UNL1        0.1165
     21 N         144.0815  138.8968  160.2195 N.am    1  UNL1       -0.2957
     22 C         143.0856  139.0828  159.1134 C.2     1  UNL1        0.2881
     23 O         141.8658  138.2121  159.0481 O.2     1  UNL1       -0.2688
     24 H         144.8821  139.4682  160.2624 H       1  UNL1        0.1499
     25 C         143.3093  140.1395  158.0726 C.3     1  UNL1        0.3489
     26 F         143.7163  139.0836  157.0881 F       1  UNL1       -0.1898
     27 F         142.9023  141.1955  159.0572 F       1  UNL1       -0.1898
     28 C         143.5330  141.1962  157.0318 C.ar    1  UNL1        0.0465
     29 C         142.6696  142.4226  157.0104 C.ar    1  UNL1        0.0023
     30 C         142.8933  143.4793  155.9696 C.ar    1  UNL1        0.0113
     31 C         143.9805  143.3097  154.9502 C.ar    1  UNL1        0.0577
     32 CL        144.2042  144.3664  153.9093 Cl      1  UNL1       -0.0822
     33 C         144.8439  142.0832  154.9715 C.ar    1  UNL1        0.0113
     34 C         144.6202  141.0265  156.0123 C.ar    1  UNL1        0.0023
@<TRIPOS>BOND
     1    11    12    2
     2    12    13    1
     3    13    14    1
     4    14    15    1
     5    15     1    1
     6     1     2    1
     7     2     3    1
     8     3     4   ar
     9     4     5   ar
    10     5    20    1
    11    20    21    1
    12    21    22   am
    13    22    23    2
    14    22    25    1
    15    25    26    1
    16    25    27    1
    17    25    28    1
    18    28    29   ar
    19    29    30   ar
    20    30    31   ar
    21    31    32    1
    22    31    33   ar
    23    33    34   ar
    24     5     6   ar
    25     6     7   ar
    26     7     8   ar
    27     8     9    1
    28     9    10    2
    29    15    16    1
    30    16    17    2
    31    16    18   am
    32    18    12   am
    33     9     1   am
    34     8     3   ar
    35    34    28   ar
    36    21    24    1
    37    18    19    1
@<TRIPOS>MOLECULE
*****
 34 37 0 0 0
SMALL
GASTEIGER

@<TRIPOS>ATOM
      1 N         143.5900  140.2934  158.0985 N.am    1  UNL1       -0.2653
      2 C         143.6163  139.6995  159.4756 C.3     1  UNL1        0.1210
      3 C         142.2184  139.2858  159.8288 C.ar    1  UNL1        0.0018
      4 C         141.6411  138.6448  161.0560 C.ar    1  UNL1       -0.0051
      5 C         140.1736  138.3421  161.1242 C.ar    1  UNL1       -0.0028
      6 C         139.2833  138.6803  159.9653 C.ar    1  UNL1       -0.0025
      7 C         139.8606  139.3212  158.7381 C.ar    1  UNL1        0.0040
      8 C         141.3281  139.6240  158.6699 C.ar    1  UNL1        0.0512
      9 C         142.1759  140.2467  157.6005 C.2     1  UNL1        0.2493
     10 O         141.6940  140.7367  156.2672 O.2     1  UNL1       -0.2699
     11 O         148.3124  142.4728  155.1069 O.2     1  UNL1       -0.2747
     12 C         147.1318  141.9279  155.8548 C.2     1  UNL1        0.2282
     13 C         146.5635  142.6885  157.0160 C.3     1  UNL1        0.0877
     14 C         145.3829  142.1436  157.7639 C.3     1  UNL1        0.0388
     15 C         144.7706  140.8382  157.3506 C.3     1  UNL1        0.1531
     16 C         145.3389  140.0776  156.1894 C.2     1  UNL1        0.2462
     17 O         144.7266  138.7721  155.7759 O.2     1  UNL1       -0.2729
     18 N         146.5195  140.6225  155.4415 N.am    1  UNL1       -0.2540
     19 H         146.8925  140.1233  154.6793 H       1  UNL1        0.1576
     20 C         139.5962  137.7011  162.3514 C.3     1  UNL1        0.1165
     21 N         139.8692  138.2896  163.7039 N.am    1  UNL1       -0.2957
     22 C         139.0576  139.4520  164.1936 C.2     1  UNL1        0.2881
     23 O         137.9730  140.0261  163.3309 O.2     1  UNL1       -0.2688
     24 H         140.5810  137.9128  164.2701 H       1  UNL1        0.1499
     25 C         139.3305  140.0405  165.5461 C.3     1  UNL1        0.3489
     26 F         138.0693  140.8468  165.4498 F       1  UNL1       -0.1898
     27 F         140.5917  139.2342  165.6425 F       1  UNL1       -0.1898
     28 C         139.6034  140.6289  166.8986 C.ar    1  UNL1        0.0465
     29 C         139.1692  139.8996  168.1354 C.ar    1  UNL1        0.0023
     30 C         139.4421  140.4881  169.4879 C.ar    1  UNL1        0.0113
     31 C         140.1492  141.8058  169.6036 C.ar    1  UNL1        0.0577
     32 CL        140.4221  142.3943  170.9561 Cl      1  UNL1       -0.0822
     33 C         140.5834  142.5352  168.3669 C.ar    1  UNL1        0.0113
     34 C         140.3105  141.9468  167.0144 C.ar    1  UNL1        0.0023
@<TRIPOS>BOND
     1    11    12    2
     2    12    13    1
     3    13    14    1
     4    14    15    1
     5    15     1    1
     6     1     2    1
     7     2     3    1
     8     3     4   ar
     9     4     5   ar
    10     5    20    1
    11    20    21    1
    12    21    22   am
    13    22    23    2
    14    22    25    1
    15    25    26    1
    16    25    27    1
    17    25    28    1
    18    28    29   ar
    19    29    30   ar
    20    30    31   ar
    21    31    32    1
    22    31    33   ar
    23    33    34   ar
    24     5     6   ar
    25     6     7   ar
    26     7     8   ar
    27     8     9    1
    28     9    10    2
    29    15    16    1
    30    16    17    2
    31    16    18   am
    32    18    12   am
    33     9     1   am
    34     8     3   ar
    35    34    28   ar
    36    21    24    1
    37    18    19    1
