@<TRIPOS>MOLECULE
*****
 35 39 0 0 0
SMALL
GASTEIGER

@<TRIPOS>ATOM
      1 C         137.4255  138.3691  167.2869 C.3     1  UNL1        0.0177
      2 C         138.7054  139.1460  167.1956 C.3     1  UNL1        0.0624
      3 C         139.2190  139.8885  168.3934 C.3     1  UNL1        0.0384
      4 C         140.4989  140.6654  168.3023 C.2     1  UNL1       -0.0343
      5 C         141.2653  140.6997  167.0133 C.2     1  UNL1       -0.0092
      6 C         142.5451  141.4766  166.9221 C.2     1  UNL1       -0.0019
      7 C         143.0587  142.2192  168.1200 C.2     1  UNL1        0.0169
      8 C         142.2924  142.1849  169.4089 C.2     1  UNL1        0.0896
      9 N         142.5491  142.8139  170.7462 N.2     1  UNL1       -0.1520
     10 N         141.4279  142.4258  171.6639 N.2     1  UNL1       -0.1507
     11 C         140.4782  141.5569  170.8938 C.2     1  UNL1        0.1054
     12 C         141.0125  141.4080  169.5001 C.3     1  UNL1        0.1032
     13 C         140.7516  139.9571  165.8154 C.3     1  UNL1        0.1205
     14 N         139.4718  139.1802  165.9066 N.3     1  UNL1       -0.2595
     15 C         141.5180  139.9914  164.5265 C.ar    1  UNL1        0.0778
     16 C         142.5212  138.9187  164.2215 C.ar    1  UNL1        0.0177
     17 C         143.2875  138.9530  162.9325 C.ar    1  UNL1        0.0171
     18 C         143.0507  140.0601  161.9484 C.ar    1  UNL1        0.0641
     19 C         142.0476  141.1327  162.2533 C.ar    1  UNL1        0.1127
     20 N         141.2812  141.0984  163.5424 N.ar    1  UNL1       -0.2452
     21 N         143.8170  140.0943  160.6594 N.pl3   1  UNL1       -0.3305
     22 H         144.5755  140.7131  160.5540 H       1  UNL1        0.1469
     23 C         143.4277  139.1859  159.5310 C.3     1  UNL1        0.1014
     24 C         143.3249  139.3289  158.0414 C.3     1  UNL1        0.0933
     25 N         142.8772  137.9012  157.9353 N.3     1  UNL1       -0.2697
     26 C         142.9801  137.7582  159.4249 C.3     1  UNL1        0.0933
     27 C         142.4879  136.9927  156.8069 C.3     1  UNL1        0.0751
     28 C         143.4844  136.0200  156.2494 C.3     1  UNL1        0.0554
     29 C         143.6046  134.6470  156.8415 C.3     1  UNL1        0.1947
     30 F         143.4645  134.4541  158.3224 F       1  UNL1       -0.2343
     31 C         138.9582  138.4376  164.7088 C.3     1  UNL1        0.1771
     32 C         138.4055  139.1941  163.5375 C.3     1  UNL1        0.4121
     33 F         137.8527  139.9508  162.3662 F       1  UNL1       -0.1685
     34 F         139.0689  138.2287  162.6007 F       1  UNL1       -0.1685
     35 F         137.7419  140.1597  164.4742 F       1  UNL1       -0.1685
@<TRIPOS>BOND
     1     2     1    1
     2     2     3    1
     3     3     4    1
     4     4     5    2
     5     5     6    1
     6     6     7    2
     7     7     8    1
     8     8     9    2
     9     9    10    1
    10    10    11    2
    11    11    12    1
    12     5    13    1
    13    13    15    1
    14    15    16   ar
    15    16    17   ar
    16    17    18   ar
    17    18    21    1
    18    21    23    1
    19    23    24    1
    20    24    25    1
    21    25    27    1
    22    27    28    1
    23    28    29    1
    24    29    30    1
    25    25    26    1
    26    18    19   ar
    27    19    20   ar
    28    13    14    1
    29    14    31    1
    30    31    32    1
    31    32    33    1
    32    32    34    1
    33    32    35    1
    34    14     2    1
    35    12     4    1
    36    20    15   ar
    37    12     8    1
    38    26    23    1
    39    21    22    1
@<TRIPOS>MOLECULE
*****
 35 39 0 0 0
SMALL
GASTEIGER

@<TRIPOS>ATOM
      1 C         137.6376  138.4741  166.9886 C.3     1  UNL1        0.0177
      2 C         138.8857  139.3061  166.9811 C.3     1  UNL1        0.0624
      3 C         139.3593  139.9592  168.2457 C.3     1  UNL1        0.0384
      4 C         140.6074  140.7912  168.2382 C.2     1  UNL1       -0.0343
      5 C         141.3818  140.9703  166.9661 C.2     1  UNL1       -0.0092
      6 C         142.6298  141.8023  166.9586 C.2     1  UNL1       -0.0019
      7 C         143.1034  142.4554  168.2233 C.2     1  UNL1        0.0169
      8 C         142.3290  142.2763  169.4953 C.2     1  UNL1        0.0896
      9 N         142.5496  142.7937  170.8859 N.2     1  UNL1       -0.1520
     10 N         141.4378  142.2814  171.7528 N.2     1  UNL1       -0.1507
     11 C         140.5301  141.4474  170.8980 C.2     1  UNL1        0.1054
     12 C         141.0810  141.4443  169.5028 C.3     1  UNL1        0.1032
     13 C         140.9081  140.3172  165.7015 C.3     1  UNL1        0.1205
     14 N         139.6601  139.4852  165.7090 N.3     1  UNL1       -0.2595
     15 C         141.6825  140.4963  164.4294 C.ar    1  UNL1        0.0778
     16 C         141.2861  141.5646  163.4540 C.ar    1  UNL1        0.0177
     17 C         142.0605  141.7437  162.1819 C.ar    1  UNL1        0.0171
     18 C         143.2315  140.8543  161.8853 C.ar    1  UNL1        0.0641
     19 C         143.6279  139.7859  162.8606 C.ar    1  UNL1        0.1127
     20 N         142.8534  139.6069  164.1327 N.ar    1  UNL1       -0.2452
     21 N         144.0059  141.0333  160.6132 N.pl3   1  UNL1       -0.3305
     22 H         144.7000  141.7289  160.5532 H       1  UNL1        0.1469
     23 C         143.7229  140.1525  159.4325 C.3     1  UNL1        0.1014
     24 C         143.9223  140.2689  157.9504 C.3     1  UNL1        0.0933
     25 N         143.3225  138.9068  157.7628 N.3     1  UNL1       -0.2697
     26 C         143.1231  138.7905  159.2449 C.3     1  UNL1        0.0933
     27 C         143.0394  138.0259  156.5821 C.3     1  UNL1        0.0751
     28 C         141.6981  138.0774  155.9126 C.3     1  UNL1        0.0554
     29 C         140.4936  138.5352  156.6804 C.3     1  UNL1        0.1947
     30 F         140.0489  137.7805  157.8980 F       1  UNL1       -0.2343
     31 C         139.1864  138.8321  164.4444 C.3     1  UNL1        0.1771
     32 C         140.0139  137.7610  163.7980 C.3     1  UNL1        0.4121
     33 F         140.8413  136.6899  163.1514 F       1  UNL1       -0.1685
     34 F         140.0933  137.0325  165.1067 F       1  UNL1       -0.1685
     35 F         139.9344  138.4895  162.4891 F       1  UNL1       -0.1685
@<TRIPOS>BOND
     1     2     1    1
     2     2     3    1
     3     3     4    1
     4     4     5    2
     5     5     6    1
     6     6     7    2
     7     7     8    1
     8     8     9    2
     9     9    10    1
    10    10    11    2
    11    11    12    1
    12     5    13    1
    13    13    15    1
    14    15    16   ar
    15    16    17   ar
    16    17    18   ar
    17    18    21    1
    18    21    23    1
    19    23    24    1
    20    24    25    1
    21    25    27    1
    22    27    28    1
    23    28    29    1
    24    29    30    1
    25    25    26    1
    26    18    19   ar
    27    19    20   ar
    28    13    14    1
    29    14    31    1
    30    31    32    1
    31    32    33    1
    32    32    34    1
    33    32    35    1
    34    14     2    1
    35    12     4    1
    36    20    15   ar
    37    12     8    1
    38    26    23    1
    39    21    22    1
@<TRIPOS>MOLECULE
*****
 35 39 0 0 0
SMALL
GASTEIGER

@<TRIPOS>ATOM
      1 C         143.7595  138.0579  166.2081 C.3     1  UNL1        0.0177
      2 C         143.0109  139.3217  166.5120 C.3     1  UNL1        0.0624
      3 C         142.5141  139.5830  167.9030 C.3     1  UNL1        0.0384
      4 C         141.7655  140.8468  168.2070 C.2     1  UNL1       -0.0343
      5 C         141.5135  141.8492  167.1200 C.2     1  UNL1       -0.0092
      6 C         140.7649  143.1129  167.4239 C.2     1  UNL1       -0.0019
      7 C         140.2681  143.3744  168.8150 C.2     1  UNL1        0.0169
      8 C         140.5201  142.3719  169.9020 C.2     1  UNL1        0.0896
      9 N         140.1543  142.3556  171.3567 N.2     1  UNL1       -0.1520
     10 N         140.6769  141.0817  171.9517 N.2     1  UNL1       -0.1507
     11 C         141.3657  140.3107  170.8648 C.2     1  UNL1        0.1054
     12 C         141.2687  141.1082  169.5980 C.3     1  UNL1        0.1032
     13 C         142.0103  141.5878  165.7289 C.3     1  UNL1        0.1205
     14 N         142.7589  140.3241  165.4250 N.3     1  UNL1       -0.2595
     15 C         141.7584  142.5903  164.6419 C.ar    1  UNL1        0.0778
     16 C         142.7146  143.7270  164.4335 C.ar    1  UNL1        0.0177
     17 C         142.4627  144.7295  163.3465 C.ar    1  UNL1        0.0171
     18 C         141.2544  144.5951  162.4678 C.ar    1  UNL1        0.0641
     19 C         140.2982  143.4584  162.6761 C.ar    1  UNL1        0.1127
     20 N         140.5502  142.4559  163.7632 N.ar    1  UNL1       -0.2452
     21 N         141.0024  145.5975  161.3807 N.pl3   1  UNL1       -0.3305
     22 H         140.9758  146.5583  161.5937 H       1  UNL1        0.1469
     23 C         140.7910  145.1360  159.9692 C.3     1  UNL1        0.1014
     24 C         139.8971  144.1317  159.3043 C.3     1  UNL1        0.0933
     25 N         140.4921  144.4834  157.9731 N.3     1  UNL1       -0.2697
     26 C         141.3860  145.4877  158.6380 C.3     1  UNL1        0.0933
     27 C         140.2807  144.0220  156.5615 C.3     1  UNL1        0.0751
     28 C         140.0211  145.0240  155.4759 C.3     1  UNL1        0.0554
     29 C         138.8671  145.9750  155.5933 C.3     1  UNL1        0.1947
     30 F         137.4934  145.5428  155.1734 F       1  UNL1       -0.2343
     31 C         143.2557  140.0627  164.0339 C.3     1  UNL1        0.1771
     32 C         144.4501  140.8050  163.5122 C.3     1  UNL1        0.4121
     33 F         145.6445  141.5474  162.9904 F       1  UNL1       -0.1685
     34 F         145.2577  140.3284  164.6828 F       1  UNL1       -0.1685
     35 F         143.6425  141.2817  162.3415 F       1  UNL1       -0.1685
@<TRIPOS>BOND
     1     2     1    1
     2     2     3    1
     3     3     4    1
     4     4     5    2
     5     5     6    1
     6     6     7    2
     7     7     8    1
     8     8     9    2
     9     9    10    1
    10    10    11    2
    11    11    12    1
    12     5    13    1
    13    13    15    1
    14    15    16   ar
    15    16    17   ar
    16    17    18   ar
    17    18    21    1
    18    21    23    1
    19    23    24    1
    20    24    25    1
    21    25    27    1
    22    27    28    1
    23    28    29    1
    24    29    30    1
    25    25    26    1
    26    18    19   ar
    27    19    20   ar
    28    13    14    1
    29    14    31    1
    30    31    32    1
    31    32    33    1
    32    32    34    1
    33    32    35    1
    34    14     2    1
    35    12     4    1
    36    20    15   ar
    37    12     8    1
    38    26    23    1
    39    21    22    1
@<TRIPOS>MOLECULE
*****
 35 39 0 0 0
SMALL
GASTEIGER

@<TRIPOS>ATOM
      1 C         138.1003  137.6791  165.8657 C.3     1  UNL1        0.0177
      2 C         138.7190  138.9945  166.2360 C.3     1  UNL1        0.0624
      3 C         139.1008  139.2692  167.6603 C.3     1  UNL1        0.0384
      4 C         139.7195  140.5845  168.0306 C.2     1  UNL1       -0.0343
      5 C         139.9564  141.6251  166.9766 C.2     1  UNL1       -0.0092
      6 C         140.5751  142.9404  167.3468 C.2     1  UNL1       -0.0019
      7 C         140.9569  143.2152  168.7712 C.2     1  UNL1        0.0169
      8 C         140.7201  142.1746  169.8252 C.2     1  UNL1        0.0896
      9 N         140.9909  142.1605  171.3005 N.2     1  UNL1       -0.1520
     10 N         140.5395  140.8365  171.8420 N.2     1  UNL1       -0.1507
     11 C         139.9897  140.0322  170.7014 C.2     1  UNL1        0.1054
     12 C         140.1013  140.8592  169.4549 C.3     1  UNL1        0.1032
     13 C         139.5745  141.3503  165.5522 C.3     1  UNL1        0.1205
     14 N         138.9559  140.0351  165.1819 N.3     1  UNL1       -0.2595
     15 C         139.8114  142.3909  164.4982 C.ar    1  UNL1        0.0778
     16 C         138.7600  143.4219  164.2122 C.ar    1  UNL1        0.0177
     17 C         138.9969  144.4625  163.1581 C.ar    1  UNL1        0.0171
     18 C         140.2853  144.4722  162.3900 C.ar    1  UNL1        0.0641
     19 C         141.3367  143.4414  162.6760 C.ar    1  UNL1        0.1127
     20 N         141.0998  142.4007  163.7301 N.ar    1  UNL1       -0.2452
     21 N         140.5222  145.5128  161.3360 N.pl3   1  UNL1       -0.3305
     22 H         140.7622  146.4314  161.5964 H       1  UNL1        0.1469
     23 C         140.3934  145.1538  159.8853 C.3     1  UNL1        0.1014
     24 C         140.0093  143.9168  159.1288 C.3     1  UNL1        0.0933
     25 N         140.2111  144.6462  157.8337 N.3     1  UNL1       -0.2697
     26 C         140.5952  145.8832  158.5902 C.3     1  UNL1        0.0933
     27 C         140.0823  144.2873  156.3829 C.3     1  UNL1        0.0751
     28 C         138.7295  144.2545  155.7358 C.3     1  UNL1        0.0554
     29 C         138.0867  145.5295  155.2764 C.3     1  UNL1        0.1947
     30 F         138.7321  146.8481  155.5843 F       1  UNL1       -0.2343
     31 C         138.5740  139.7603  163.7576 C.3     1  UNL1        0.1771
     32 C         139.2979  138.7033  162.9775 C.3     1  UNL1        0.4121
     33 F         140.0219  137.6462  162.1975 F       1  UNL1       -0.1685
     34 F         137.9867  138.1760  162.4750 F       1  UNL1       -0.1685
     35 F         140.6092  139.2304  163.4801 F       1  UNL1       -0.1685
@<TRIPOS>BOND
     1     2     1    1
     2     2     3    1
     3     3     4    1
     4     4     5    2
     5     5     6    1
     6     6     7    2
     7     7     8    1
     8     8     9    2
     9     9    10    1
    10    10    11    2
    11    11    12    1
    12     5    13    1
    13    13    15    1
    14    15    16   ar
    15    16    17   ar
    16    17    18   ar
    17    18    21    1
    18    21    23    1
    19    23    24    1
    20    24    25    1
    21    25    27    1
    22    27    28    1
    23    28    29    1
    24    29    30    1
    25    25    26    1
    26    18    19   ar
    27    19    20   ar
    28    13    14    1
    29    14    31    1
    30    31    32    1
    31    32    33    1
    32    32    34    1
    33    32    35    1
    34    14     2    1
    35    12     4    1
    36    20    15   ar
    37    12     8    1
    38    26    23    1
    39    21    22    1
@<TRIPOS>MOLECULE
*****
 35 39 0 0 0
SMALL
GASTEIGER

@<TRIPOS>ATOM
      1 C         137.6939  138.4024  166.7578 C.3     1  UNL1        0.0177
      2 C         138.9145  139.2659  166.8785 C.3     1  UNL1        0.0624
      3 C         139.2823  139.8633  168.2044 C.3     1  UNL1        0.0384
      4 C         140.5029  140.7269  168.3252 C.2     1  UNL1       -0.0343
      5 C         141.3556  140.9930  167.1202 C.2     1  UNL1       -0.0092
      6 C         142.5760  141.8565  167.2409 C.2     1  UNL1       -0.0019
      7 C         142.9440  142.4539  168.5668 C.2     1  UNL1        0.0169
      8 C         142.0913  142.1878  169.7718 C.2     1  UNL1        0.0896
      9 N         142.2023  142.6365  171.1988 N.2     1  UNL1       -0.1520
     10 N         141.0503  142.0503  171.9599 N.2     1  UNL1       -0.1507
     11 C         140.2274  141.2393  171.0033 C.2     1  UNL1        0.1054
     12 C         140.8707  141.3242  169.6510 C.3     1  UNL1        0.1032
     13 C         140.9876  140.3956  165.7943 C.3     1  UNL1        0.1205
     14 N         139.7672  139.5321  165.6735 N.3     1  UNL1       -0.2595
     15 C         141.8403  140.6617  164.5893 C.ar    1  UNL1        0.0778
     16 C         143.0786  139.8489  164.3522 C.ar    1  UNL1        0.0177
     17 C         143.9313  140.1150  163.1472 C.ar    1  UNL1        0.0171
     18 C         143.5457  141.1941  162.1792 C.ar    1  UNL1        0.0641
     19 C         142.3076  142.0069  162.4162 C.ar    1  UNL1        0.1127
     20 N         141.4548  141.7407  163.6213 N.ar    1  UNL1       -0.2452
     21 N         144.3984  141.4603  160.9742 N.pl3   1  UNL1       -0.3305
     22 H         145.3751  141.3488  161.0279 H       1  UNL1        0.1469
     23 C         143.7630  141.8962  159.6872 C.3     1  UNL1        0.1014
     24 C         143.4308  141.2250  158.3876 C.3     1  UNL1        0.0933
     25 N         142.8644  142.5128  157.8672 N.3     1  UNL1       -0.2697
     26 C         143.1966  143.1840  159.1669 C.3     1  UNL1        0.0933
     27 C         142.2289  142.9489  156.5803 C.3     1  UNL1        0.0751
     28 C         142.5427  144.2999  156.0091 C.3     1  UNL1        0.0554
     29 C         141.8633  145.5209  156.5543 C.3     1  UNL1        0.1947
     30 F         142.5588  146.3743  157.5732 F       1  UNL1       -0.2343
     31 C         139.3992  138.9347  164.3477 C.3     1  UNL1        0.1771
     32 C         140.2158  137.8129  163.7780 C.3     1  UNL1        0.4121
     33 F         141.0325  136.6909  163.2084 F       1  UNL1       -0.1685
     34 F         140.3624  138.5721  162.4928 F       1  UNL1       -0.1685
     35 F         140.0693  137.0535  165.0633 F       1  UNL1       -0.1685
@<TRIPOS>BOND
     1     2     1    1
     2     2     3    1
     3     3     4    1
     4     4     5    2
     5     5     6    1
     6     6     7    2
     7     7     8    1
     8     8     9    2
     9     9    10    1
    10    10    11    2
    11    11    12    1
    12     5    13    1
    13    13    15    1
    14    15    16   ar
    15    16    17   ar
    16    17    18   ar
    17    18    21    1
    18    21    23    1
    19    23    24    1
    20    24    25    1
    21    25    27    1
    22    27    28    1
    23    28    29    1
    24    29    30    1
    25    25    26    1
    26    18    19   ar
    27    19    20   ar
    28    13    14    1
    29    14    31    1
    30    31    32    1
    31    32    33    1
    32    32    34    1
    33    32    35    1
    34    14     2    1
    35    12     4    1
    36    20    15   ar
    37    12     8    1
    38    26    23    1
    39    21    22    1
@<TRIPOS>MOLECULE
*****
 35 39 0 0 0
SMALL
GASTEIGER

@<TRIPOS>ATOM
      1 C         143.8607  138.0771  166.3336 C.3     1  UNL1        0.0177
      2 C         143.0844  139.3291  166.6161 C.3     1  UNL1        0.0624
      3 C         142.5673  139.5950  167.9988 C.3     1  UNL1        0.0384
      4 C         141.7910  140.8470  168.2814 C.2     1  UNL1       -0.0343
      5 C         141.5318  141.8331  167.1813 C.2     1  UNL1       -0.0092
      6 C         140.7556  143.0851  167.4638 C.2     1  UNL1       -0.0019
      7 C         140.2384  143.3510  168.8466 C.2     1  UNL1        0.0169
      8 C         140.4976  142.3648  169.9467 C.2     1  UNL1        0.0896
      9 N         140.1161  142.3562  171.3973 N.2     1  UNL1       -0.1520
     10 N         140.6566  141.0989  172.0113 N.2     1  UNL1       -0.1507
     11 C         141.3722  140.3304  170.9401 C.2     1  UNL1        0.1054
     12 C         141.2739  141.1128  169.6641 C.3     1  UNL1        0.1032
     13 C         142.0490  141.5672  165.7985 C.3     1  UNL1        0.1205
     14 N         142.8252  140.3153  165.5159 N.3     1  UNL1       -0.2595
     15 C         141.7898  142.5534  164.6984 C.ar    1  UNL1        0.0778
     16 C         140.5684  142.4144  163.8388 C.ar    1  UNL1        0.0177
     17 C         140.3092  143.4006  162.7387 C.ar    1  UNL1        0.0171
     18 C         141.2715  144.5258  162.4981 C.ar    1  UNL1        0.0641
     19 C         142.4929  144.6649  163.3576 C.ar    1  UNL1        0.1127
     20 N         142.7521  143.6787  164.4578 N.ar    1  UNL1       -0.2452
     21 N         141.0124  145.5120  161.3980 N.pl3   1  UNL1       -0.3305
     22 H         140.7423  146.4332  161.6163 H       1  UNL1        0.1469
     23 C         141.1646  145.0946  159.9653 C.3     1  UNL1        0.1014
     24 C         140.5071  145.4787  158.6730 C.3     1  UNL1        0.0933
     25 N         141.3800  144.5043  157.9392 N.3     1  UNL1       -0.2697
     26 C         142.0376  144.1201  159.2315 C.3     1  UNL1        0.0933
     27 C         141.5324  144.0868  156.5065 C.3     1  UNL1        0.0751
     28 C         142.2634  144.9720  155.5411 C.3     1  UNL1        0.0554
     29 C         141.5762  145.4549  154.2983 C.3     1  UNL1        0.1947
     30 F         140.9883  146.8341  154.2541 F       1  UNL1       -0.2343
     31 C         143.3424  140.0494  164.1332 C.3     1  UNL1        0.1771
     32 C         142.8302  138.8746  163.3539 C.3     1  UNL1        0.4121
     33 F         142.3181  137.6996  162.5746 F       1  UNL1       -0.1685
     34 F         141.4349  139.1787  163.8124 F       1  UNL1       -0.1685
     35 F         144.2257  138.5704  162.8953 F       1  UNL1       -0.1685
@<TRIPOS>BOND
     1     2     1    1
     2     2     3    1
     3     3     4    1
     4     4     5    2
     5     5     6    1
     6     6     7    2
     7     7     8    1
     8     8     9    2
     9     9    10    1
    10    10    11    2
    11    11    12    1
    12     5    13    1
    13    13    15    1
    14    15    16   ar
    15    16    17   ar
    16    17    18   ar
    17    18    21    1
    18    21    23    1
    19    23    24    1
    20    24    25    1
    21    25    27    1
    22    27    28    1
    23    28    29    1
    24    29    30    1
    25    25    26    1
    26    18    19   ar
    27    19    20   ar
    28    13    14    1
    29    14    31    1
    30    31    32    1
    31    32    33    1
    32    32    34    1
    33    32    35    1
    34    14     2    1
    35    12     4    1
    36    20    15   ar
    37    12     8    1
    38    26    23    1
    39    21    22    1
@<TRIPOS>MOLECULE
*****
 35 39 0 0 0
SMALL
GASTEIGER

@<TRIPOS>ATOM
      1 C         138.0564  138.5100  166.0499 C.3     1  UNL1        0.0177
      2 C         139.2184  139.3967  166.3874 C.3     1  UNL1        0.0624
      3 C         139.4495  139.8223  167.8070 C.3     1  UNL1        0.0384
      4 C         140.6114  140.7089  168.1445 C.2     1  UNL1       -0.0343
      5 C         141.5422  141.1699  167.0624 C.2     1  UNL1       -0.0092
      6 C         142.7041  142.0565  167.3998 C.2     1  UNL1       -0.0019
      7 C         142.9352  142.4821  168.8195 C.2     1  UNL1        0.0169
      8 C         142.0044  142.0211  169.9017 C.2     1  UNL1        0.0896
      9 N         141.9793  142.2757  171.3797 N.2     1  UNL1       -0.1520
     10 N         140.8019  141.5464  171.9557 N.2     1  UNL1       -0.1507
     11 C         140.0993  140.8411  170.8336 C.2     1  UNL1        0.1054
     12 C         140.8425  141.1345  169.5642 C.3     1  UNL1        0.1032
     13 C         141.3110  140.7442  165.6427 C.3     1  UNL1        0.1205
     14 N         140.1492  139.8577  165.3052 N.3     1  UNL1       -0.2595
     15 C         142.2418  141.2052  164.5605 C.ar    1  UNL1        0.0778
     16 C         143.4590  140.3961  164.2230 C.ar    1  UNL1        0.0177
     17 C         144.3898  140.8571  163.1409 C.ar    1  UNL1        0.0171
     18 C         144.1034  142.1274  162.3961 C.ar    1  UNL1        0.0641
     19 C         142.8863  142.9365  162.7335 C.ar    1  UNL1        0.1127
     20 N         141.9555  142.4754  163.8158 N.ar    1  UNL1       -0.2452
     21 N         145.0342  142.5884  161.3140 N.pl3   1  UNL1       -0.3305
     22 H         145.9050  142.9830  161.5488 H       1  UNL1        0.1469
     23 C         144.6381  142.4482  159.8740 C.3     1  UNL1        0.1014
     24 C         145.3189  142.6861  158.5587 C.3     1  UNL1        0.0933
     25 N         144.0781  142.2498  157.8376 N.3     1  UNL1       -0.2697
     26 C         143.3973  142.0119  159.1529 C.3     1  UNL1        0.0933
     27 C         143.6819  142.1096  156.3976 C.3     1  UNL1        0.0751
     28 C         143.9364  140.8218  155.6718 C.3     1  UNL1        0.0554
     29 C         145.2740  140.1515  155.7801 C.3     1  UNL1        0.1947
     30 F         146.5274  140.9755  155.7873 F       1  UNL1       -0.2343
     31 C         139.9180  139.4320  163.8855 C.3     1  UNL1        0.1771
     32 C         138.6869  139.8844  163.1579 C.3     1  UNL1        0.4121
     33 F         137.4556  140.3369  162.4302 F       1  UNL1       -0.1685
     34 F         138.4372  138.4765  162.7048 F       1  UNL1       -0.1685
     35 F         138.9364  141.2924  163.6110 F       1  UNL1       -0.1685
@<TRIPOS>BOND
     1     2     1    1
     2     2     3    1
     3     3     4    1
     4     4     5    2
     5     5     6    1
     6     6     7    2
     7     7     8    1
     8     8     9    2
     9     9    10    1
    10    10    11    2
    11    11    12    1
    12     5    13    1
    13    13    15    1
    14    15    16   ar
    15    16    17   ar
    16    17    18   ar
    17    18    21    1
    18    21    23    1
    19    23    24    1
    20    24    25    1
    21    25    27    1
    22    27    28    1
    23    28    29    1
    24    29    30    1
    25    25    26    1
    26    18    19   ar
    27    19    20   ar
    28    13    14    1
    29    14    31    1
    30    31    32    1
    31    32    33    1
    32    32    34    1
    33    32    35    1
    34    14     2    1
    35    12     4    1
    36    20    15   ar
    37    12     8    1
    38    26    23    1
    39    21    22    1
@<TRIPOS>MOLECULE
*****
 35 39 0 0 0
SMALL
GASTEIGER

@<TRIPOS>ATOM
      1 C         138.8502  144.7572  165.4459 C.3     1  UNL1        0.0177
      2 C         139.6449  143.5966  165.9670 C.3     1  UNL1        0.0624
      3 C         139.7991  143.3968  167.4456 C.3     1  UNL1        0.0384
      4 C         140.5938  142.2363  167.9668 C.2     1  UNL1       -0.0343
      5 C         141.2343  141.2756  167.0094 C.2     1  UNL1       -0.0092
      6 C         142.0290  140.1151  167.5305 C.2     1  UNL1       -0.0019
      7 C         142.1832  139.9152  169.0091 C.2     1  UNL1        0.0169
      8 C         141.5427  140.8760  169.9666 C.2     1  UNL1        0.0896
      9 N         141.5213  140.9351  171.4653 N.2     1  UNL1       -0.1520
     10 N         140.7133  142.1323  171.8703 N.2     1  UNL1       -0.1507
     11 C         140.2354  142.8130  170.6220 C.2     1  UNL1        0.1054
     12 C         140.7480  142.0365  169.4454 C.3     1  UNL1        0.1032
     13 C         141.0801  141.4754  165.5307 C.3     1  UNL1        0.1205
     14 N         140.2854  142.6359  165.0096 N.3     1  UNL1       -0.2595
     15 C         141.7206  140.5147  164.5733 C.ar    1  UNL1        0.0778
     16 C         143.1296  140.7428  164.1118 C.ar    1  UNL1        0.0177
     17 C         143.7701  139.7820  163.1544 C.ar    1  UNL1        0.0171
     18 C         143.0016  138.5931  162.6583 C.ar    1  UNL1        0.0641
     19 C         141.5927  138.3650  163.1197 C.ar    1  UNL1        0.1127
     20 N         140.9522  139.3258  164.0772 N.ar    1  UNL1       -0.2452
     21 N         143.6421  137.6323  161.7009 N.pl3   1  UNL1       -0.3305
     22 H         144.2479  136.9328  162.0369 H       1  UNL1        0.1469
     23 C         143.3596  137.7374  160.2315 C.3     1  UNL1        0.1014
     24 C         143.3446  138.8554  159.2315 C.3     1  UNL1        0.0933
     25 N         142.9601  137.8859  158.1534 N.3     1  UNL1       -0.2697
     26 C         142.9750  136.7680  159.1534 C.3     1  UNL1        0.0933
     27 C         142.6775  137.9909  156.6840 C.3     1  UNL1        0.0751
     28 C         143.7263  137.5925  155.6884 C.3     1  UNL1        0.0554
     29 C         144.1001  136.1485  155.5299 C.3     1  UNL1        0.1947
     30 F         143.3618  135.0938  156.2998 F       1  UNL1       -0.2343
     31 C         140.1312  142.8357  163.5309 C.3     1  UNL1        0.1771
     32 C         138.7775  142.7192  162.8955 C.3     1  UNL1        0.4121
     33 F         137.4237  142.6027  162.2601 F       1  UNL1       -0.1685
     34 F         139.0259  143.9872  162.1337 F       1  UNL1       -0.1685
     35 F         138.5290  141.4512  163.6574 F       1  UNL1       -0.1685
@<TRIPOS>BOND
     1     2     1    1
     2     2     3    1
     3     3     4    1
     4     4     5    2
     5     5     6    1
     6     6     7    2
     7     7     8    1
     8     8     9    2
     9     9    10    1
    10    10    11    2
    11    11    12    1
    12     5    13    1
    13    13    15    1
    14    15    16   ar
    15    16    17   ar
    16    17    18   ar
    17    18    21    1
    18    21    23    1
    19    23    24    1
    20    24    25    1
    21    25    27    1
    22    27    28    1
    23    28    29    1
    24    29    30    1
    25    25    26    1
    26    18    19   ar
    27    19    20   ar
    28    13    14    1
    29    14    31    1
    30    31    32    1
    31    32    33    1
    32    32    34    1
    33    32    35    1
    34    14     2    1
    35    12     4    1
    36    20    15   ar
    37    12     8    1
    38    26    23    1
    39    21    22    1
@<TRIPOS>MOLECULE
*****
 35 39 0 0 0
SMALL
GASTEIGER

@<TRIPOS>ATOM
      1 C         143.7554  142.9152  166.0770 C.3     1  UNL1        0.0177
      2 C         142.5978  142.0051  165.7914 C.3     1  UNL1        0.0624
      3 C         141.6961  141.5659  166.9068 C.3     1  UNL1        0.0384
      4 C         140.5385  140.6557  166.6213 C.2     1  UNL1       -0.0343
      5 C         140.2825  140.1847  165.2203 C.2     1  UNL1       -0.0092
      6 C         139.1249  139.2746  164.9348 C.2     1  UNL1       -0.0019
      7 C         138.2232  138.8354  166.0502 C.2     1  UNL1        0.0169
      8 C         138.4792  139.3064  167.4511 C.2     1  UNL1        0.0896
      9 N         137.7670  139.0425  168.7446 N.2     1  UNL1       -0.1520
     10 N         138.4844  139.7896  169.8295 N.2     1  UNL1       -0.1507
     11 C         139.6400  140.5152  169.2066 C.2     1  UNL1        0.1054
     12 C         139.6369  140.2165  167.7367 C.3     1  UNL1        0.1032
     13 C         141.1842  140.6240  164.1049 C.3     1  UNL1        0.1205
     14 N         142.3418  141.5341  164.3904 N.3     1  UNL1       -0.2595
     15 C         140.9282  140.1530  162.7040 C.ar    1  UNL1        0.0778
     16 C         141.4721  138.8324  162.2454 C.ar    1  UNL1        0.0177
     17 C         141.2161  138.3615  160.8445 C.ar    1  UNL1        0.0171
     18 C         140.4161  139.2112  159.9020 C.ar    1  UNL1        0.0641
     19 C         139.8723  140.5317  160.3605 C.ar    1  UNL1        0.1127
     20 N         140.1283  141.0027  161.7615 N.ar    1  UNL1       -0.2452
     21 N         140.1601  138.7402  158.5011 N.pl3   1  UNL1       -0.3305
     22 H         139.2987  138.9349  158.0660 H       1  UNL1        0.1469
     23 C         141.2166  137.9727  157.7630 C.3     1  UNL1        0.1014
     24 C         141.2217  137.0243  156.6009 C.3     1  UNL1        0.0933
     25 N         142.7107  136.8872  156.7192 N.3     1  UNL1       -0.2697
     26 C         142.7057  137.8356  157.8814 C.3     1  UNL1        0.0933
     27 C         143.7673  136.1197  155.9812 C.3     1  UNL1        0.0751
     28 C         143.8282  134.6255  156.0981 C.3     1  UNL1        0.0554
     29 C         143.5009  133.9613  157.4025 C.3     1  UNL1        0.1947
     30 F         144.6045  133.4698  158.2916 F       1  UNL1       -0.2343
     31 C         143.2435  141.9734  163.2750 C.3     1  UNL1        0.1771
     32 C         144.7150  141.6917  163.3451 C.3     1  UNL1        0.4121
     33 F         146.1867  141.4100  163.4152 F       1  UNL1       -0.1685
     34 F         145.0053  143.1224  163.0005 F       1  UNL1       -0.1685
     35 F         144.4248  140.2610  163.6898 F       1  UNL1       -0.1685
@<TRIPOS>BOND
     1     2     1    1
     2     2     3    1
     3     3     4    1
     4     4     5    2
     5     5     6    1
     6     6     7    2
     7     7     8    1
     8     8     9    2
     9     9    10    1
    10    10    11    2
    11    11    12    1
    12     5    13    1
    13    13    15    1
    14    15    16   ar
    15    16    17   ar
    16    17    18   ar
    17    18    21    1
    18    21    23    1
    19    23    24    1
    20    24    25    1
    21    25    27    1
    22    27    28    1
    23    28    29    1
    24    29    30    1
    25    25    26    1
    26    18    19   ar
    27    19    20   ar
    28    13    14    1
    29    14    31    1
    30    31    32    1
    31    32    33    1
    32    32    34    1
    33    32    35    1
    34    14     2    1
    35    12     4    1
    36    20    15   ar
    37    12     8    1
    38    26    23    1
    39    21    22    1
