@<TRIPOS>MOLECULE
*****
 39 43 0 0 0
SMALL
GASTEIGER

@<TRIPOS>ATOM
      1 C         141.6137  144.6296  162.9074 C.3     1  UNL1        0.0162
      2 C         142.4950  144.5857  164.1204 C.3     1  UNL1        0.0028
      3 C         143.8056  143.8581  164.0693 C.3     1  UNL1        0.0158
      4 C         144.2350  143.1743  162.8052 C.3     1  UNL1        0.0543
      5 C         143.3537  143.2182  161.5921 C.3     1  UNL1        0.0158
      6 C         142.0430  143.9458  161.6433 C.3     1  UNL1        0.0028
      7 C         140.3030  145.3573  162.9585 C.3     1  UNL1        0.0737
      8 N         140.0845  146.5699  162.1032 N.3     1  UNL1       -0.3206
      9 H         140.9244  146.7550  161.5549 H       1  UNL1        0.1189
     10 H         139.8828  147.3737  162.6980 H       1  UNL1        0.1189
     11 C         139.2107  144.8722  163.8651 C.3     1  UNL1        0.1245
     12 C         140.4395  142.3746  167.4009 C.ar    1  UNL1        0.1403
     13 C         140.0940  140.9157  167.4449 C.ar    1  UNL1        0.0385
     14 C         139.3388  140.2892  166.3103 C.ar    1  UNL1        0.0237
     15 C         138.9292  141.1217  165.1317 C.ar    1  UNL1        0.0975
     16 N         138.1741  140.4952  163.9971 N.ar    1  UNL1       -0.2374
     17 C         137.7645  141.3277  162.8185 C.ar    1  UNL1        0.1594
     18 C         138.1100  142.7868  162.7745 C.ar    1  UNL1        0.2803
     19 O         137.7005  143.6193  161.5959 O.2     1  UNL1       -0.2653
     20 N         138.8652  143.4132  163.9091 N.ar    1  UNL1       -0.2913
     21 C         139.2748  142.5807  165.0877 C.ar    1  UNL1        0.0832
     22 C         140.0299  143.2071  166.2223 C.ar    1  UNL1        0.0557
     23 C         140.4499  143.6303  169.6753 C.3     1  UNL1        0.2525
     24 O         141.1947  143.0011  168.5355 O.3     1  UNL1       -0.4714
     25 N         145.5457  142.4466  162.7540 N.3     1  UNL1       -0.2922
     26 H         146.2417  143.0638  163.1726 H       1  UNL1        0.1236
     27 C         145.6899  141.1130  163.4254 C.3     1  UNL1        0.1353
     28 C         144.4795  140.2612  163.6688 C.ar    1  UNL1        0.1567
     29 N         144.2563  139.6431  165.0172 N.ar    1  UNL1       -0.2245
     30 C         143.0459  138.7912  165.2607 C.ar    1  UNL1        0.1400
     31 C         142.0586  138.5575  164.1559 C.ar    1  UNL1        0.1898
     32 C         142.2818  139.1757  162.8075 C.ar    1  UNL1        0.1715
     33 N         143.4922  140.0275  162.5640 N.ar    1  UNL1       -0.2113
     34 N         141.2946  138.9421  161.7026 N.am    1  UNL1       -0.2638
     35 C         140.0841  138.0902  161.9462 C.2     1  UNL1        0.2718
     36 O         139.0968  137.8565  160.8413 O.2     1  UNL1       -0.2707
     37 C         139.8610  137.4721  163.2945 C.3     1  UNL1        0.2899
     38 O         140.8482  137.7057  164.3994 O.3     1  UNL1       -0.4612
     39 H         141.4410  139.3478  160.8176 H       1  UNL1        0.1565
@<TRIPOS>BOND
     1    23    24    1
     2    24    12    1
     3    12    13   ar
     4    13    14   ar
     5    14    15   ar
     6    15    16   ar
     7    16    17   ar
     8    17    18   ar
     9    18    19    2
    10    18    20   ar
    11    20    11    1
    12    11     7    1
    13     7     8    1
    14     7     1    1
    15     1     2    1
    16     2     3    1
    17     3     4    1
    18     4    25    1
    19    25    27    1
    20    27    28    1
    21    28    29   ar
    22    29    30   ar
    23    30    31   ar
    24    31    32   ar
    25    32    33   ar
    26    32    34    1
    27    34    35   am
    28    35    36    2
    29    35    37    1
    30    37    38    1
    31     4     5    1
    32     5     6    1
    33    20    21   ar
    34    21    22   ar
    35    22    12   ar
    36    21    15   ar
    37     6     1    1
    38    33    28   ar
    39    38    31    1
    40     8     9    1
    41     8    10    1
    42    25    26    1
    43    34    39    1
@<TRIPOS>MOLECULE
*****
 39 43 0 0 0
SMALL
GASTEIGER

@<TRIPOS>ATOM
      1 C         143.4262  142.2824  164.0249 C.3     1  UNL1        0.0162
      2 C         143.7317  142.9877  162.7368 C.3     1  UNL1        0.0028
      3 C         142.9881  144.2382  162.3717 C.3     1  UNL1        0.0158
      4 C         141.9390  144.7834  163.2948 C.3     1  UNL1        0.0543
      5 C         141.6335  144.0781  164.5829 C.3     1  UNL1        0.0158
      6 C         142.3771  142.8277  164.9480 C.3     1  UNL1        0.0028
      7 C         144.1699  141.0319  164.3900 C.3     1  UNL1        0.0737
      8 N         145.5693  140.8195  163.8935 N.3     1  UNL1       -0.3206
      9 H         145.8540  141.6185  163.3269 H       1  UNL1        0.1189
     10 H         145.6042  139.9717  163.3275 H       1  UNL1        0.1189
     11 C         143.5141  139.9938  165.2515 C.3     1  UNL1        0.1245
     12 C         139.5921  139.8818  167.4550 C.ar    1  UNL1        0.1403
     13 C         138.4515  139.0707  166.9153 C.ar    1  UNL1        0.0385
     14 C         138.6183  138.2970  165.6411 C.ar    1  UNL1        0.0237
     15 C         139.9256  138.3343  164.9066 C.ar    1  UNL1        0.0975
     16 N         140.0924  137.5605  163.6325 N.ar    1  UNL1       -0.2374
     17 C         141.3997  137.5978  162.8980 C.ar    1  UNL1        0.1594
     18 C         142.5403  138.4090  163.4377 C.ar    1  UNL1        0.2803
     19 O         143.8476  138.4463  162.7032 O.2     1  UNL1       -0.2653
     20 N         142.3736  139.1827  164.7118 N.ar    1  UNL1       -0.2913
     21 C         141.0662  139.1454  165.4463 C.ar    1  UNL1        0.0832
     22 C         140.8994  139.9191  166.7205 C.ar    1  UNL1        0.0557
     23 C         140.0540  140.1577  169.9967 C.3     1  UNL1        0.2525
     24 O         139.4253  140.6556  168.7291 O.3     1  UNL1       -0.4714
     25 N         141.1953  146.0339  162.9298 N.3     1  UNL1       -0.2922
     26 H         141.8232  146.5915  162.3508 H       1  UNL1        0.1236
     27 C         139.8923  145.9434  162.1923 C.3     1  UNL1        0.1353
     28 C         139.2153  144.6152  162.0260 C.ar    1  UNL1        0.1567
     29 N         138.3268  144.0852  163.1120 N.ar    1  UNL1       -0.2245
     30 C         137.6497  142.7570  162.9458 C.ar    1  UNL1        0.1400
     31 C         137.8614  141.9589  161.6935 C.ar    1  UNL1        0.1898
     32 C         138.7500  142.4889  160.6074 C.ar    1  UNL1        0.1715
     33 N         139.4270  143.8171  160.7737 N.ar    1  UNL1       -0.2113
     34 N         138.9616  141.6908  159.3552 N.am    1  UNL1       -0.2638
     35 C         138.2846  140.3626  159.1889 C.2     1  UNL1        0.2718
     36 O         138.4962  139.5645  157.9367 O.2     1  UNL1       -0.2707
     37 C         137.3960  139.8326  160.2749 C.3     1  UNL1        0.2899
     38 O         137.1844  140.6307  161.5272 O.3     1  UNL1       -0.4612
     39 H         139.5448  142.0387  158.6424 H       1  UNL1        0.1565
@<TRIPOS>BOND
     1    23    24    1
     2    24    12    1
     3    12    13   ar
     4    13    14   ar
     5    14    15   ar
     6    15    16   ar
     7    16    17   ar
     8    17    18   ar
     9    18    19    2
    10    18    20   ar
    11    20    11    1
    12    11     7    1
    13     7     8    1
    14     7     1    1
    15     1     2    1
    16     2     3    1
    17     3     4    1
    18     4    25    1
    19    25    27    1
    20    27    28    1
    21    28    29   ar
    22    29    30   ar
    23    30    31   ar
    24    31    32   ar
    25    32    33   ar
    26    32    34    1
    27    34    35   am
    28    35    36    2
    29    35    37    1
    30    37    38    1
    31     4     5    1
    32     5     6    1
    33    20    21   ar
    34    21    22   ar
    35    22    12   ar
    36    21    15   ar
    37     6     1    1
    38    33    28   ar
    39    38    31    1
    40     8     9    1
    41     8    10    1
    42    25    26    1
    43    34    39    1
@<TRIPOS>MOLECULE
*****
 39 43 0 0 0
SMALL
GASTEIGER

@<TRIPOS>ATOM
      1 C         138.5723  142.7849  163.7968 C.3     1  UNL1        0.0162
      2 C         137.8144  141.6968  163.0956 C.3     1  UNL1        0.0028
      3 C         137.6875  140.3431  163.7291 C.3     1  UNL1        0.0158
      4 C         138.3185  140.0775  165.0637 C.3     1  UNL1        0.0543
      5 C         139.0764  141.1656  165.7649 C.3     1  UNL1        0.0158
      6 C         139.2033  142.5193  165.1314 C.3     1  UNL1        0.0028
      7 C         138.6992  144.1387  163.1633 C.3     1  UNL1        0.0737
      8 N         137.5045  144.7830  162.5249 N.3     1  UNL1       -0.3206
      9 H         136.6975  144.1653  162.6128 H       1  UNL1        0.1189
     10 H         137.6967  144.9527  161.5376 H       1  UNL1        0.1189
     11 C         140.0208  144.8482  163.1683 C.3     1  UNL1        0.1245
     12 C         143.7467  142.9557  164.8372 C.ar    1  UNL1        0.1403
     13 C         144.8405  142.5103  163.9124 C.ar    1  UNL1        0.0385
     14 C         144.6923  142.6958  162.4314 C.ar    1  UNL1        0.0237
     15 C         143.4504  143.3266  161.8750 C.ar    1  UNL1        0.0975
     16 N         143.3022  143.5121  160.3939 N.ar    1  UNL1       -0.2374
     17 C         142.0603  144.1429  159.8376 C.ar    1  UNL1        0.1594
     18 C         140.9664  144.5883  160.7624 C.ar    1  UNL1        0.2803
     19 O         139.7244  145.2192  160.2061 O.2     1  UNL1       -0.2653
     20 N         141.1146  144.4028  162.2435 N.ar    1  UNL1       -0.2913
     21 C         142.3566  143.7720  162.7998 C.ar    1  UNL1        0.0832
     22 C         142.5048  143.5865  164.2809 C.ar    1  UNL1        0.0557
     23 C         142.8521  142.0147  167.0876 C.3     1  UNL1        0.2525
     24 O         143.8949  142.7702  166.3183 O.3     1  UNL1       -0.4714
     25 N         138.1916  138.7237  165.6972 N.3     1  UNL1       -0.2922
     26 H         137.2326  138.4139  165.5403 H       1  UNL1        0.1236
     27 C         139.0862  137.6030  165.2572 C.3     1  UNL1        0.1353
     28 C         140.3647  137.9040  164.5328 C.ar    1  UNL1        0.1567
     29 N         141.5757  138.3446  165.3004 N.ar    1  UNL1       -0.2245
     30 C         142.8543  138.6457  164.5760 C.ar    1  UNL1        0.1400
     31 C         142.9217  138.5062  163.0840 C.ar    1  UNL1        0.1898
     32 C         141.7106  138.0656  162.3164 C.ar    1  UNL1        0.1715
     33 N         140.4321  137.7645  163.0408 N.ar    1  UNL1       -0.2113
     34 N         141.7781  137.9260  160.8245 N.am    1  UNL1       -0.2638
     35 C         143.0567  138.2271  160.1001 C.2     1  UNL1        0.2718
     36 O         143.1242  138.0876  158.6081 O.2     1  UNL1       -0.2707
     37 C         144.2677  138.6677  160.8677 C.3     1  UNL1        0.2899
     38 O         144.2002  138.8073  162.3597 O.3     1  UNL1       -0.4612
     39 H         140.9833  137.6369  160.3207 H       1  UNL1        0.1565
@<TRIPOS>BOND
     1    23    24    1
     2    24    12    1
     3    12    13   ar
     4    13    14   ar
     5    14    15   ar
     6    15    16   ar
     7    16    17   ar
     8    17    18   ar
     9    18    19    2
    10    18    20   ar
    11    20    11    1
    12    11     7    1
    13     7     8    1
    14     7     1    1
    15     1     2    1
    16     2     3    1
    17     3     4    1
    18     4    25    1
    19    25    27    1
    20    27    28    1
    21    28    29   ar
    22    29    30   ar
    23    30    31   ar
    24    31    32   ar
    25    32    33   ar
    26    32    34    1
    27    34    35   am
    28    35    36    2
    29    35    37    1
    30    37    38    1
    31     4     5    1
    32     5     6    1
    33    20    21   ar
    34    21    22   ar
    35    22    12   ar
    36    21    15   ar
    37     6     1    1
    38    33    28   ar
    39    38    31    1
    40     8     9    1
    41     8    10    1
    42    25    26    1
    43    34    39    1
@<TRIPOS>MOLECULE
*****
 39 43 0 0 0
SMALL
GASTEIGER

@<TRIPOS>ATOM
      1 C         138.3177  140.1989  164.4161 C.3     1  UNL1        0.0162
      2 C         137.6563  140.3854  163.0827 C.3     1  UNL1        0.0028
      3 C         137.4208  141.7673  162.5491 C.3     1  UNL1        0.0158
      4 C         137.8467  142.9627  163.3487 C.3     1  UNL1        0.0543
      5 C         138.5081  142.7762  164.6820 C.3     1  UNL1        0.0158
      6 C         138.7437  141.3944  165.2157 C.3     1  UNL1        0.0028
      7 C         138.5532  138.8169  164.9497 C.3     1  UNL1        0.0737
      8 N         138.1346  138.4715  166.3480 N.3     1  UNL1       -0.3206
      9 H         137.7103  139.2883  166.7875 H       1  UNL1        0.1189
     10 H         138.9515  138.1818  166.8858 H       1  UNL1        0.1189
     11 C         139.2074  137.7805  164.0850 C.3     1  UNL1        0.1245
     12 C         143.1686  138.7042  166.0100 C.ar    1  UNL1        0.1403
     13 C         144.3480  139.0727  165.1596 C.ar    1  UNL1        0.0385
     14 C         144.2069  139.1332  163.6674 C.ar    1  UNL1        0.0237
     15 C         142.8866  138.8254  163.0258 C.ar    1  UNL1        0.0975
     16 N         142.7456  138.8860  161.5336 N.ar    1  UNL1       -0.2374
     17 C         141.4252  138.5781  160.8920 C.ar    1  UNL1        0.1594
     18 C         140.2458  138.2095  161.7424 C.ar    1  UNL1        0.2803
     19 O         138.9254  137.9016  161.1007 O.2     1  UNL1       -0.2653
     20 N         140.3868  138.1489  163.2345 N.ar    1  UNL1       -0.2913
     21 C         141.7072  138.4569  163.8762 C.ar    1  UNL1        0.0832
     22 C         141.8483  138.3963  165.3683 C.ar    1  UNL1        0.0557
     23 C         142.5595  139.6133  168.3664 C.3     1  UNL1        0.2525
     24 O         143.3096  138.6436  167.5021 O.3     1  UNL1       -0.4714
     25 N         137.6112  144.3447  162.8150 N.3     1  UNL1       -0.2922
     26 H         137.0382  144.8325  163.5036 H       1  UNL1        0.1236
     27 C         138.7759  145.2391  162.5092 C.3     1  UNL1        0.1353
     28 C         139.9536  144.7037  161.7501 C.ar    1  UNL1        0.1567
     29 N         139.9691  144.7616  160.2513 N.ar    1  UNL1       -0.2245
     30 C         141.1468  144.2262  159.4921 C.ar    1  UNL1        0.1400
     31 C         142.3091  143.6328  160.2318 C.ar    1  UNL1        0.1898
     32 C         142.2936  143.5749  161.7307 C.ar    1  UNL1        0.1715
     33 N         141.1158  144.1104  162.4898 N.ar    1  UNL1       -0.2113
     34 N         143.4558  142.9816  162.4704 N.am    1  UNL1       -0.2638
     35 C         144.6336  142.4462  161.7112 C.2     1  UNL1        0.2718
     36 O         145.7958  141.8529  162.4509 O.2     1  UNL1       -0.2707
     37 C         144.6491  142.5041  160.2125 C.3     1  UNL1        0.2899
     38 O         143.4868  143.0974  159.4728 O.3     1  UNL1       -0.4612
     39 H         143.4456  142.9436  163.4541 H       1  UNL1        0.1565
@<TRIPOS>BOND
     1    23    24    1
     2    24    12    1
     3    12    13   ar
     4    13    14   ar
     5    14    15   ar
     6    15    16   ar
     7    16    17   ar
     8    17    18   ar
     9    18    19    2
    10    18    20   ar
    11    20    11    1
    12    11     7    1
    13     7     8    1
    14     7     1    1
    15     1     2    1
    16     2     3    1
    17     3     4    1
    18     4    25    1
    19    25    27    1
    20    27    28    1
    21    28    29   ar
    22    29    30   ar
    23    30    31   ar
    24    31    32   ar
    25    32    33   ar
    26    32    34    1
    27    34    35   am
    28    35    36    2
    29    35    37    1
    30    37    38    1
    31     4     5    1
    32     5     6    1
    33    20    21   ar
    34    21    22   ar
    35    22    12   ar
    36    21    15   ar
    37     6     1    1
    38    33    28   ar
    39    38    31    1
    40     8     9    1
    41     8    10    1
    42    25    26    1
    43    34    39    1
@<TRIPOS>MOLECULE
*****
 39 43 0 0 0
SMALL
GASTEIGER

@<TRIPOS>ATOM
      1 C         139.2930  137.9664  164.7458 C.3     1  UNL1        0.0162
      2 C         140.7400  137.7232  165.0570 C.3     1  UNL1        0.0028
      3 C         141.7213  137.5106  163.9426 C.3     1  UNL1        0.0158
      4 C         141.2555  137.5411  162.5171 C.3     1  UNL1        0.0543
      5 C         139.8084  137.7843  162.2060 C.3     1  UNL1        0.0158
      6 C         138.8271  137.9970  163.3204 C.3     1  UNL1        0.0028
      7 C         138.3117  138.1791  165.8603 C.3     1  UNL1        0.0737
      8 N         137.6484  137.0013  166.5105 N.3     1  UNL1       -0.3206
      9 H         137.9789  136.1409  166.0735 H       1  UNL1        0.1189
     10 H         136.6375  137.0742  166.3957 H       1  UNL1        0.1189
     11 C         137.9937  139.5695  166.3245 C.3     1  UNL1        0.1245
     12 C         138.5888  142.5973  163.0491 C.ar    1  UNL1        0.1403
     13 C         139.6815  143.6187  163.1615 C.ar    1  UNL1        0.0385
     14 C         140.5759  143.6309  164.3656 C.ar    1  UNL1        0.0237
     15 C         140.3775  142.6217  165.4574 C.ar    1  UNL1        0.0975
     16 N         141.2719  142.6338  166.6615 N.ar    1  UNL1       -0.2374
     17 C         141.0736  141.6246  167.7533 C.ar    1  UNL1        0.1594
     18 C         139.9808  140.6031  167.6410 C.ar    1  UNL1        0.2803
     19 O         139.7825  139.5939  168.7328 O.2     1  UNL1       -0.2653
     20 N         139.0864  140.5909  166.4369 N.ar    1  UNL1       -0.2913
     21 C         139.2848  141.6003  165.3450 C.ar    1  UNL1        0.0832
     22 C         138.3905  141.5881  164.1409 C.ar    1  UNL1        0.0557
     23 C         138.2741  142.3449  160.4826 C.3     1  UNL1        0.2525
     24 O         137.6944  142.5852  161.8450 O.3     1  UNL1       -0.4714
     25 N         142.2368  137.3285  161.4027 N.3     1  UNL1       -0.2922
     26 H         141.7557  137.5709  160.5365 H       1  UNL1        0.1236
     27 C         143.5390  138.0730  161.3977 C.3     1  UNL1        0.1353
     28 C         143.5498  139.5660  161.5423 C.ar    1  UNL1        0.1567
     29 N         143.1716  140.4348  160.3795 N.ar    1  UNL1       -0.2245
     30 C         143.1825  141.9278  160.5240 C.ar    1  UNL1        0.1400
     31 C         143.5716  142.5519  161.8314 C.ar    1  UNL1        0.1898
     32 C         143.9498  141.6830  162.9942 C.ar    1  UNL1        0.1715
     33 N         143.9389  140.1901  162.8496 N.ar    1  UNL1       -0.2113
     34 N         144.3388  142.3072  164.3015 N.am    1  UNL1       -0.2638
     35 C         144.3497  143.8002  164.4460 C.2     1  UNL1        0.2718
     36 O         144.7388  144.4243  165.7533 O.2     1  UNL1       -0.2707
     37 C         143.9715  144.6690  163.2833 C.3     1  UNL1        0.2899
     38 O         143.5824  144.0449  161.9759 O.3     1  UNL1       -0.4612
     39 H         144.5871  141.7369  165.0647 H       1  UNL1        0.1565
@<TRIPOS>BOND
     1    23    24    1
     2    24    12    1
     3    12    13   ar
     4    13    14   ar
     5    14    15   ar
     6    15    16   ar
     7    16    17   ar
     8    17    18   ar
     9    18    19    2
    10    18    20   ar
    11    20    11    1
    12    11     7    1
    13     7     8    1
    14     7     1    1
    15     1     2    1
    16     2     3    1
    17     3     4    1
    18     4    25    1
    19    25    27    1
    20    27    28    1
    21    28    29   ar
    22    29    30   ar
    23    30    31   ar
    24    31    32   ar
    25    32    33   ar
    26    32    34    1
    27    34    35   am
    28    35    36    2
    29    35    37    1
    30    37    38    1
    31     4     5    1
    32     5     6    1
    33    20    21   ar
    34    21    22   ar
    35    22    12   ar
    36    21    15   ar
    37     6     1    1
    38    33    28   ar
    39    38    31    1
    40     8     9    1
    41     8    10    1
    42    25    26    1
    43    34    39    1
@<TRIPOS>MOLECULE
*****
 39 43 0 0 0
SMALL
GASTEIGER

@<TRIPOS>ATOM
      1 C         138.1344  140.2074  162.7701 C.3     1  UNL1        0.0162
      2 C         138.2188  140.8988  161.4416 C.3     1  UNL1        0.0028
      3 C         138.0750  142.3897  161.3616 C.3     1  UNL1        0.0158
      4 C         137.8470  143.1893  162.6101 C.3     1  UNL1        0.0543
      5 C         137.7626  142.4979  163.9385 C.3     1  UNL1        0.0158
      6 C         137.9064  141.0069  164.0186 C.3     1  UNL1        0.0028
      7 C         138.2782  138.7164  162.8501 C.3     1  UNL1        0.0737
      8 N         137.7394  137.8509  161.7499 N.3     1  UNL1       -0.3206
      9 H         137.3114  138.4381  161.0340 H       1  UNL1        0.1189
     10 H         137.0395  137.2138  162.1302 H       1  UNL1        0.1189
     11 C         138.9607  138.0910  164.0304 C.3     1  UNL1        0.1245
     12 C         140.2500  139.9862  167.9028 C.ar    1  UNL1        0.1403
     13 C         141.7032  140.2559  168.1585 C.ar    1  UNL1        0.0385
     14 C         142.7267  139.8939  167.1234 C.ar    1  UNL1        0.0237
     15 C         142.2969  139.2621  165.8326 C.ar    1  UNL1        0.0975
     16 N         143.3204  138.9001  164.7975 N.ar    1  UNL1       -0.2374
     17 C         142.8907  138.2684  163.5067 C.ar    1  UNL1        0.1594
     18 C         141.4374  137.9987  163.2509 C.ar    1  UNL1        0.2803
     19 O         141.0077  137.3670  161.9601 O.2     1  UNL1       -0.2653
     20 N         140.4139  138.3607  164.2861 N.ar    1  UNL1       -0.2913
     21 C         140.8437  138.9924  165.5769 C.ar    1  UNL1        0.0832
     22 C         139.8203  139.3545  166.6120 C.ar    1  UNL1        0.0557
     23 C         139.5748  141.3142  170.0313 C.3     1  UNL1        0.2525
     24 O         139.2265  140.3482  168.9379 O.3     1  UNL1       -0.4714
     25 N         137.7032  144.6803  162.5301 N.3     1  UNL1       -0.2922
     26 H         137.1375  144.9649  163.3297 H       1  UNL1        0.1236
     27 C         138.9236  145.5525  162.5306 C.3     1  UNL1        0.1353
     28 C         140.2888  144.9321  162.5623 C.ar    1  UNL1        0.1567
     29 N         140.9882  144.7248  163.8730 N.ar    1  UNL1       -0.2245
     30 C         142.3535  144.1044  163.9047 C.ar    1  UNL1        0.1400
     31 C         143.0195  143.6912  162.6257 C.ar    1  UNL1        0.1898
     32 C         142.3201  143.8984  161.3150 C.ar    1  UNL1        0.1715
     33 N         140.9548  144.5189  161.2833 N.ar    1  UNL1       -0.2113
     34 N         142.9860  143.4853  160.0360 N.am    1  UNL1       -0.2638
     35 C         144.3513  142.8648  160.0678 C.2     1  UNL1        0.2718
     36 O         145.0173  142.4516  158.7888 O.2     1  UNL1       -0.2707
     37 C         145.0507  142.6576  161.3784 C.3     1  UNL1        0.2899
     38 O         144.3848  143.0708  162.6574 O.3     1  UNL1       -0.4612
     39 H         142.5270  143.6213  159.1758 H       1  UNL1        0.1565
@<TRIPOS>BOND
     1    23    24    1
     2    24    12    1
     3    12    13   ar
     4    13    14   ar
     5    14    15   ar
     6    15    16   ar
     7    16    17   ar
     8    17    18   ar
     9    18    19    2
    10    18    20   ar
    11    20    11    1
    12    11     7    1
    13     7     8    1
    14     7     1    1
    15     1     2    1
    16     2     3    1
    17     3     4    1
    18     4    25    1
    19    25    27    1
    20    27    28    1
    21    28    29   ar
    22    29    30   ar
    23    30    31   ar
    24    31    32   ar
    25    32    33   ar
    26    32    34    1
    27    34    35   am
    28    35    36    2
    29    35    37    1
    30    37    38    1
    31     4     5    1
    32     5     6    1
    33    20    21   ar
    34    21    22   ar
    35    22    12   ar
    36    21    15   ar
    37     6     1    1
    38    33    28   ar
    39    38    31    1
    40     8     9    1
    41     8    10    1
    42    25    26    1
    43    34    39    1
@<TRIPOS>MOLECULE
*****
 39 43 0 0 0
SMALL
GASTEIGER

@<TRIPOS>ATOM
      1 C         143.8431  142.5924  162.3631 C.3     1  UNL1        0.0162
      2 C         143.7252  143.6170  163.4523 C.3     1  UNL1        0.0028
      3 C         142.7071  144.7131  163.3438 C.3     1  UNL1        0.0158
      4 C         141.8068  144.7847  162.1462 C.3     1  UNL1        0.0543
      5 C         141.9246  143.7600  161.0571 C.3     1  UNL1        0.0158
      6 C         142.9428  142.6639  161.1655 C.3     1  UNL1        0.0028
      7 C         144.8613  141.4962  162.4716 C.3     1  UNL1        0.0737
      8 N         146.2613  141.8133  162.9068 N.3     1  UNL1       -0.3206
      9 H         146.3430  142.8141  163.0862 H       1  UNL1        0.1189
     10 H         146.9150  141.5452  162.1711 H       1  UNL1        0.1189
     11 C         144.4794  140.0829  162.1449 C.3     1  UNL1        0.1245
     12 C         140.4814  138.7517  160.5657 C.ar    1  UNL1        0.1403
     13 C         139.5335  138.0057  161.4573 C.ar    1  UNL1        0.0385
     14 C         139.9182  137.7034  162.8752 C.ar    1  UNL1        0.0237
     15 C         141.2509  138.1471  163.4016 C.ar    1  UNL1        0.0975
     16 N         141.6356  137.8449  164.8196 N.ar    1  UNL1       -0.2374
     17 C         142.9682  138.2886  165.3460 C.ar    1  UNL1        0.1594
     18 C         143.9162  139.0346  164.4544 C.ar    1  UNL1        0.2803
     19 O         145.2489  139.4783  164.9808 O.2     1  UNL1       -0.2653
     20 N         143.5315  139.3369  163.0365 N.ar    1  UNL1       -0.2913
     21 C         142.1988  138.8931  162.5101 C.ar    1  UNL1        0.0832
     22 C         141.8141  139.1954  161.0921 C.ar    1  UNL1        0.0557
     23 C         138.9103  139.9262  158.8622 C.3     1  UNL1        0.2525
     24 O         140.0967  139.0540  159.1477 O.3     1  UNL1       -0.4714
     25 N         140.7886  145.8808  162.0377 N.3     1  UNL1       -0.2922
     26 H         140.7777  146.1770  161.0617 H       1  UNL1        0.1236
     27 C         139.3635  145.6220  162.4276 C.3     1  UNL1        0.1353
     28 C         138.9481  144.2562  162.8880 C.ar    1  UNL1        0.1567
     29 N         137.9949  143.4441  162.0623 N.ar    1  UNL1       -0.2245
     30 C         137.5795  142.0782  162.5227 C.ar    1  UNL1        0.1400
     31 C         138.1173  141.5245  163.8088 C.ar    1  UNL1        0.1898
     32 C         139.0706  142.3366  164.6345 C.ar    1  UNL1        0.1715
     33 N         139.4860  143.7024  164.1741 N.ar    1  UNL1       -0.2113
     34 N         139.6085  141.7829  165.9206 N.am    1  UNL1       -0.2638
     35 C         139.1931  140.4170  166.3810 C.2     1  UNL1        0.2718
     36 O         139.7309  139.8633  167.6671 O.2     1  UNL1       -0.2707
     37 C         138.2399  139.6049  165.5553 C.3     1  UNL1        0.2899
     38 O         137.7020  140.1587  164.2692 O.3     1  UNL1       -0.4612
     39 H         140.2341  142.3159  166.4626 H       1  UNL1        0.1565
@<TRIPOS>BOND
     1    23    24    1
     2    24    12    1
     3    12    13   ar
     4    13    14   ar
     5    14    15   ar
     6    15    16   ar
     7    16    17   ar
     8    17    18   ar
     9    18    19    2
    10    18    20   ar
    11    20    11    1
    12    11     7    1
    13     7     8    1
    14     7     1    1
    15     1     2    1
    16     2     3    1
    17     3     4    1
    18     4    25    1
    19    25    27    1
    20    27    28    1
    21    28    29   ar
    22    29    30   ar
    23    30    31   ar
    24    31    32   ar
    25    32    33   ar
    26    32    34    1
    27    34    35   am
    28    35    36    2
    29    35    37    1
    30    37    38    1
    31     4     5    1
    32     5     6    1
    33    20    21   ar
    34    21    22   ar
    35    22    12   ar
    36    21    15   ar
    37     6     1    1
    38    33    28   ar
    39    38    31    1
    40     8     9    1
    41     8    10    1
    42    25    26    1
    43    34    39    1
@<TRIPOS>MOLECULE
*****
 39 43 0 0 0
SMALL
GASTEIGER

@<TRIPOS>ATOM
      1 C         143.3648  138.9560  162.1625 C.3     1  UNL1        0.0162
      2 C         143.9431  140.0970  161.3792 C.3     1  UNL1        0.0028
      3 C         144.7256  141.1676  162.0802 C.3     1  UNL1        0.0158
      4 C         144.9298  141.0972  163.5645 C.3     1  UNL1        0.0543
      5 C         144.3515  139.9562  164.3478 C.3     1  UNL1        0.0158
      6 C         143.5690  138.8856  163.6468 C.3     1  UNL1        0.0028
      7 C         142.5822  137.8853  161.4614 C.3     1  UNL1        0.0737
      8 N         143.2652  136.9755  160.4839 N.3     1  UNL1       -0.3206
      9 H         144.2521  137.2250  160.4194 H       1  UNL1        0.1189
     10 H         142.8292  137.0730  159.5669 H       1  UNL1        0.1189
     11 C         141.1167  137.7247  161.7380 C.3     1  UNL1        0.1245
     12 C         138.6493  139.9663  164.7606 C.ar    1  UNL1        0.1403
     13 C         137.6807  141.0178  164.3067 C.ar    1  UNL1        0.0385
     14 C         137.5345  141.3221  162.8451 C.ar    1  UNL1        0.0237
     15 C         138.3570  140.5749  161.8376 C.ar    1  UNL1        0.0975
     16 N         138.2108  140.8791  160.3761 N.ar    1  UNL1       -0.2374
     17 C         139.0332  140.1319  159.3685 C.ar    1  UNL1        0.1594
     18 C         140.0019  139.0804  159.8225 C.ar    1  UNL1        0.2803
     19 O         140.8244  138.3332  158.8149 O.2     1  UNL1       -0.2653
     20 N         140.1481  138.7761  161.2840 N.ar    1  UNL1       -0.2913
     21 C         139.3256  139.5234  162.2916 C.ar    1  UNL1        0.0832
     22 C         139.4717  139.2191  163.7531 C.ar    1  UNL1        0.0557
     23 C         137.8412  138.7175  166.8907 C.3     1  UNL1        0.2525
     24 O         138.7955  139.6621  166.2222 O.3     1  UNL1       -0.4714
     25 N         145.7124  142.1678  164.2656 N.3     1  UNL1       -0.2922
     26 H         146.2830  142.6278  163.5562 H       1  UNL1        0.1236
     27 C         144.9957  143.2519  165.0147 C.3     1  UNL1        0.1353
     28 C         143.5369  143.4970  164.7661 C.ar    1  UNL1        0.1567
     29 N         142.5061  142.8039  165.6068 N.ar    1  UNL1       -0.2245
     30 C         141.0472  143.0490  165.3583 C.ar    1  UNL1        0.1400
     31 C         140.6193  143.9873  164.2690 C.ar    1  UNL1        0.1898
     32 C         141.6502  144.6804  163.4283 C.ar    1  UNL1        0.1715
     33 N         143.1090  144.4353  163.6769 N.ar    1  UNL1       -0.2113
     34 N         141.2223  145.6187  162.3391 N.am    1  UNL1       -0.2638
     35 C         139.7634  145.8638  162.0905 C.2     1  UNL1        0.2718
     36 O         139.3355  146.8021  161.0013 O.2     1  UNL1       -0.2707
     37 C         138.7326  145.1707  162.9312 C.3     1  UNL1        0.2899
     38 O         139.1605  144.2324  164.0205 O.3     1  UNL1       -0.4612
     39 H         141.8989  146.0737  161.7873 H       1  UNL1        0.1565
@<TRIPOS>BOND
     1    23    24    1
     2    24    12    1
     3    12    13   ar
     4    13    14   ar
     5    14    15   ar
     6    15    16   ar
     7    16    17   ar
     8    17    18   ar
     9    18    19    2
    10    18    20   ar
    11    20    11    1
    12    11     7    1
    13     7     8    1
    14     7     1    1
    15     1     2    1
    16     2     3    1
    17     3     4    1
    18     4    25    1
    19    25    27    1
    20    27    28    1
    21    28    29   ar
    22    29    30   ar
    23    30    31   ar
    24    31    32   ar
    25    32    33   ar
    26    32    34    1
    27    34    35   am
    28    35    36    2
    29    35    37    1
    30    37    38    1
    31     4     5    1
    32     5     6    1
    33    20    21   ar
    34    21    22   ar
    35    22    12   ar
    36    21    15   ar
    37     6     1    1
    38    33    28   ar
    39    38    31    1
    40     8     9    1
    41     8    10    1
    42    25    26    1
    43    34    39    1
@<TRIPOS>MOLECULE
*****
 39 43 0 0 0
SMALL
GASTEIGER

@<TRIPOS>ATOM
      1 C         140.4156  143.4833  164.7141 C.3     1  UNL1        0.0162
      2 C         141.0273  142.7243  165.8541 C.3     1  UNL1        0.0028
      3 C         142.4512  142.2605  165.7682 C.3     1  UNL1        0.0158
      4 C         143.2634  142.5559  164.5422 C.3     1  UNL1        0.0543
      5 C         142.6517  143.3149  163.4022 C.3     1  UNL1        0.0158
      6 C         141.2278  143.7786  163.4881 C.3     1  UNL1        0.0028
      7 C         138.9916  143.9470  164.8001 C.3     1  UNL1        0.0737
      8 N         138.6706  145.2709  165.4280 N.3     1  UNL1       -0.3206
      9 H         139.5331  145.7177  165.7391 H       1  UNL1        0.1189
     10 H         138.0544  145.1272  166.2280 H       1  UNL1        0.1189
     11 C         137.8888  143.0868  164.2581 C.3     1  UNL1        0.1245
     12 C         138.4879  139.0742  166.2050 C.ar    1  UNL1        0.1403
     13 C         138.8156  137.8750  165.3658 C.ar    1  UNL1        0.0385
     14 C         138.9436  138.0132  163.8776 C.ar    1  UNL1        0.0237
     15 C         138.7439  139.3507  163.2287 C.ar    1  UNL1        0.0975
     16 N         138.8719  139.4889  161.7406 N.ar    1  UNL1       -0.2374
     17 C         138.6722  140.8264  161.0916 C.ar    1  UNL1        0.1594
     18 C         138.3445  142.0257  161.9308 C.ar    1  UNL1        0.2803
     19 O         138.1448  143.3632  161.2819 O.2     1  UNL1       -0.2653
     20 N         138.2165  141.8875  163.4189 N.ar    1  UNL1       -0.2913
     21 C         138.4162  140.5499  164.0679 C.ar    1  UNL1        0.0832
     22 C         138.2882  140.4117  165.5560 C.ar    1  UNL1        0.0557
     23 C         139.1245  139.8540  168.6001 C.3     1  UNL1        0.2525
     24 O         138.3599  138.9360  167.6931 O.3     1  UNL1       -0.4714
     25 N         144.6874  142.0922  164.4562 N.3     1  UNL1       -0.2922
     26 H         145.1239  142.3140  165.3511 H       1  UNL1        0.1236
     27 C         144.9910  140.6510  164.1718 C.3     1  UNL1        0.1353
     28 C         144.2364  139.9231  163.0991 C.ar    1  UNL1        0.1567
     29 N         143.2440  138.8610  163.4691 N.ar    1  UNL1       -0.2245
     30 C         142.4894  138.1331  162.3963 C.ar    1  UNL1        0.1400
     31 C         142.7272  138.4674  160.9535 C.ar    1  UNL1        0.1898
     32 C         143.7197  139.5296  160.5835 C.ar    1  UNL1        0.1715
     33 N         144.4743  140.2574  161.6563 N.ar    1  UNL1       -0.2113
     34 N         143.9576  139.8638  159.1407 N.am    1  UNL1       -0.2638
     35 C         143.2030  139.1359  158.0679 C.2     1  UNL1        0.2718
     36 O         143.4408  139.4702  156.6251 O.2     1  UNL1       -0.2707
     37 C         142.2106  138.0738  158.4380 C.3     1  UNL1        0.2899
     38 O         141.9727  137.7395  159.8808 O.3     1  UNL1       -0.4612
     39 H         144.6089  140.5610  158.8978 H       1  UNL1        0.1565
@<TRIPOS>BOND
     1    23    24    1
     2    24    12    1
     3    12    13   ar
     4    13    14   ar
     5    14    15   ar
     6    15    16   ar
     7    16    17   ar
     8    17    18   ar
     9    18    19    2
    10    18    20   ar
    11    20    11    1
    12    11     7    1
    13     7     8    1
    14     7     1    1
    15     1     2    1
    16     2     3    1
    17     3     4    1
    18     4    25    1
    19    25    27    1
    20    27    28    1
    21    28    29   ar
    22    29    30   ar
    23    30    31   ar
    24    31    32   ar
    25    32    33   ar
    26    32    34    1
    27    34    35   am
    28    35    36    2
    29    35    37    1
    30    37    38    1
    31     4     5    1
    32     5     6    1
    33    20    21   ar
    34    21    22   ar
    35    22    12   ar
    36    21    15   ar
    37     6     1    1
    38    33    28   ar
    39    38    31    1
    40     8     9    1
    41     8    10    1
    42    25    26    1
    43    34    39    1
