@<TRIPOS>MOLECULE
*****
 48 55 0 0 0
SMALL
GASTEIGER

@<TRIPOS>ATOM
      1 C         140.5825  144.7317  157.8370 C.ar    1  UNL1        0.1384
      2 C         141.4129  144.2800  156.6723 C.ar    1  UNL1        0.0369
      3 C         141.8422  142.8465  156.5685 C.ar    1  UNL1        0.0042
      4 C         141.4412  141.8647  157.6292 C.ar    1  UNL1        0.0117
      5 C         140.6108  142.3163  158.7939 C.ar    1  UNL1       -0.0176
      6 C         140.1814  143.7498  158.8978 C.ar    1  UNL1        0.0327
      7 C         140.1058  141.5077  159.9520 C.3     1  UNL1        0.0330
      8 C         139.5082  140.8903  161.1814 C.3     1  UNL1        0.0157
      9 C         140.3065  140.0477  160.2314 C.3     1  UNL1        0.0938
     10 C         141.0617  139.0358  159.4217 C.3     1  UNL1        0.1148
     11 N         141.8028  139.2338  158.1327 N.ar    1  UNL1       -0.3269
     12 C         141.9716  140.4928  157.3349 C.ar    1  UNL1        0.0555
     13 C         142.7972  140.1680  156.1255 C.ar    1  UNL1       -0.0053
     14 C         143.1386  138.7082  156.1757 C.ar    1  UNL1        0.0132
     15 C         143.9297  137.8300  155.2521 C.ar    1  UNL1        0.0013
     16 C         144.1062  136.3746  155.5690 C.ar    1  UNL1        0.0046
     17 C         143.4916  135.7972  156.8096 C.ar    1  UNL1        0.0563
     18 C         142.7005  136.6754  157.7332 C.ar    1  UNL1        0.0217
     19 C         142.5240  138.1309  157.4163 C.ar    1  UNL1        0.0597
     20 C         140.0183  138.9146  161.1712 C.2     1  UNL1        0.2268
     21 O         138.8188  138.0420  160.9483 O.2     1  UNL1       -0.2748
     22 N         140.9296  138.6543  162.3337 N.am    1  UNL1       -0.2800
     23 C         142.1602  139.4380  162.6822 C.3     1  UNL1        0.0913
     24 C         142.7615  138.8324  163.9159 C.3     1  UNL1        0.0230
     25 C         141.9025  137.6744  164.3297 C.3     1  UNL1        0.0230
     26 C         140.7704  137.5643  163.3519 C.3     1  UNL1        0.0913
     27 C         139.7611  137.6927  162.2365 C.3     1  UNL1        0.0922
     28 N         140.0493  138.8258  161.2968 N.3     1  UNL1       -0.2687
     29 C         139.1380  139.0862  160.1341 C.3     1  UNL1        0.0897
     30 C         141.2488  139.6984  161.5196 C.3     1  UNL1        0.0922
     31 C         143.2091  141.1333  155.0539 C.3     1  UNL1        0.0238
     32 C         144.4938  141.8966  155.1854 C.3     1  UNL1        0.0044
     33 C         144.9057  142.8619  154.1139 C.3     1  UNL1        0.0003
     34 C         144.0331  143.0641  152.9107 C.3     1  UNL1        0.0000
     35 C         142.7485  142.3009  152.7791 C.3     1  UNL1        0.0003
     36 C         142.3365  141.3355  153.8507 C.3     1  UNL1        0.0044
     37 C         143.6681  134.3418  157.1265 C.2     1  UNL1        0.2640
     38 O         143.9221  133.9074  158.5396 O.2     1  UNL1       -0.2686
     39 N         143.5905  133.3207  156.0305 N.am    1  UNL1       -0.1853
     40 H         143.4238  133.6058  155.1030 H       1  UNL1        0.1765
     41 S         143.7670  131.8652  156.3473 S.O2    1  UNL1        0.0545
     42 O         142.2895  131.7351  156.5720 O.2     1  UNL1       -0.1545
     43 O         145.2443  131.9953  156.1227 O.2     1  UNL1       -0.1545
     44 C         143.9433  130.4098  156.6642 C.3     1  UNL1        0.1490
     45 C         143.5594  129.3702  155.6533 C.3     1  UNL1        0.0273
     46 C         144.5036  129.9939  157.9920 C.3     1  UNL1        0.0273
     47 C         139.5830  146.8659  156.7435 C.3     1  UNL1        0.2525
     48 O         140.1532  146.1651  157.9409 O.3     1  UNL1       -0.4714
@<TRIPOS>BOND
     1    47    48    1
     2    48     1    1
     3     1     2   ar
     4     2     3   ar
     5     3     4   ar
     6     4     5   ar
     7     5     6   ar
     8     5     7    1
     9     7     8    1
    10     8     9    1
    11     9    20    1
    12    20    21    2
    13    20    22   am
    14    22    23    1
    15    23    24    1
    16    24    25    1
    17    25    26    1
    18    26    27    1
    19    27    28    1
    20    28    29    1
    21    28    30    1
    22     9    10    1
    23    10    11    1
    24    11    12   ar
    25    12    13   ar
    26    13    31    1
    27    31    32    1
    28    32    33    1
    29    33    34    1
    30    34    35    1
    31    35    36    1
    32    13    14   ar
    33    14    15   ar
    34    15    16   ar
    35    16    17   ar
    36    17    37    1
    37    37    38    2
    38    37    39   am
    39    39    41    1
    40    41    42    2
    41    41    43    2
    42    41    44    1
    43    44    45    1
    44    44    46    1
    45    17    18   ar
    46    18    19   ar
    47     6     1   ar
    48     9     7    1
    49    26    22    1
    50    19    11   ar
    51    12     4    1
    52    36    31    1
    53    19    14   ar
    54    30    23    1
    55    39    40    1
@<TRIPOS>MOLECULE
*****
 48 55 0 0 0
SMALL
GASTEIGER

@<TRIPOS>ATOM
      1 C         140.6177  144.5087  157.6145 C.ar    1  UNL1        0.1384
      2 C         140.6037  143.8136  156.2854 C.ar    1  UNL1        0.0369
      3 C         141.0076  142.3722  156.1886 C.ar    1  UNL1        0.0042
      4 C         141.4254  141.6260  157.4208 C.ar    1  UNL1        0.0117
      5 C         141.4394  142.3210  158.7499 C.ar    1  UNL1       -0.0176
      6 C         141.0356  143.7624  158.8469 C.ar    1  UNL1        0.0327
      7 C         141.8191  141.7670  160.0912 C.3     1  UNL1        0.0330
      8 C         142.1520  141.4174  161.5114 C.3     1  UNL1        0.0157
      9 C         142.2785  140.3809  160.4345 C.3     1  UNL1        0.0938
     10 C         142.4716  139.2067  159.5214 C.3     1  UNL1        0.1148
     11 N         142.2532  139.1283  158.0394 N.ar    1  UNL1       -0.3269
     12 C         141.7876  140.2051  157.1046 C.ar    1  UNL1        0.0555
     13 C         141.7311  139.6260  155.7221 C.ar    1  UNL1       -0.0053
     14 C         142.1618  138.1915  155.8025 C.ar    1  UNL1        0.0132
     15 C         142.3019  137.1254  154.7565 C.ar    1  UNL1        0.0013
     16 C         142.7646  135.7518  155.1428 C.ar    1  UNL1        0.0046
     17 C         143.0873  135.4443  156.5750 C.ar    1  UNL1        0.0563
     18 C         142.9472  136.5103  157.6210 C.ar    1  UNL1        0.0217
     19 C         142.4845  137.8839  157.2347 C.ar    1  UNL1        0.0597
     20 C         142.7252  139.4592  161.5304 C.2     1  UNL1        0.2268
     21 O         144.1833  139.3385  161.8610 O.2     1  UNL1       -0.2748
     22 N         141.7138  138.6581  162.2954 N.am    1  UNL1       -0.2800
     23 C         140.2296  138.6742  162.0788 C.3     1  UNL1        0.0913
     24 C         139.6076  137.7263  163.0610 C.3     1  UNL1        0.0230
     25 C         140.7074  137.1244  163.8846 C.3     1  UNL1        0.0230
     26 C         142.0090  137.7003  163.4114 C.3     1  UNL1        0.0913
     27 C         143.1459  138.4327  162.7403 C.3     1  UNL1        0.0922
     28 N         142.6991  139.3545  161.6444 N.3     1  UNL1       -0.2687
     29 C         143.7105  140.1557  160.8793 C.3     1  UNL1        0.0897
     30 C         141.2410  139.4752  161.3138 C.3     1  UNL1        0.0922
     31 C         141.3166  140.3537  154.4776 C.3     1  UNL1        0.0238
     32 C         142.3402  141.0846  153.6601 C.3     1  UNL1        0.0044
     33 C         141.9259  141.8122  152.4157 C.3     1  UNL1        0.0003
     34 C         140.4879  141.8091  151.9886 C.3     1  UNL1        0.0000
     35 C         139.4644  141.0782  152.8060 C.3     1  UNL1        0.0003
     36 C         139.8788  140.3505  154.0505 C.3     1  UNL1        0.0044
     37 C         143.5500  134.0708  156.9614 C.2     1  UNL1        0.2640
     38 O         144.0528  133.8119  158.3507 O.2     1  UNL1       -0.2686
     39 N         143.5100  132.9561  155.9584 N.am    1  UNL1       -0.1853
     40 H         143.1800  133.1260  155.0466 H       1  UNL1        0.1765
     41 S         143.9727  131.5826  156.3446 S.O2    1  UNL1        0.0545
     42 O         145.3943  131.9914  156.0951 O.2     1  UNL1       -0.1545
     43 O         142.5513  131.1737  156.5941 O.2     1  UNL1       -0.1545
     44 C         144.4355  130.2090  156.7308 C.3     1  UNL1        0.1490
     45 C         144.8015  129.2147  155.6690 C.3     1  UNL1        0.0273
     46 C         144.5324  129.8298  158.1789 C.3     1  UNL1        0.0273
     47 C         139.6302  146.6472  156.5184 C.3     1  UNL1        0.2525
     48 O         140.2139  145.9500  157.7114 O.3     1  UNL1       -0.4714
@<TRIPOS>BOND
     1    47    48    1
     2    48     1    1
     3     1     2   ar
     4     2     3   ar
     5     3     4   ar
     6     4     5   ar
     7     5     6   ar
     8     5     7    1
     9     7     8    1
    10     8     9    1
    11     9    20    1
    12    20    21    2
    13    20    22   am
    14    22    23    1
    15    23    24    1
    16    24    25    1
    17    25    26    1
    18    26    27    1
    19    27    28    1
    20    28    29    1
    21    28    30    1
    22     9    10    1
    23    10    11    1
    24    11    12   ar
    25    12    13   ar
    26    13    31    1
    27    31    32    1
    28    32    33    1
    29    33    34    1
    30    34    35    1
    31    35    36    1
    32    13    14   ar
    33    14    15   ar
    34    15    16   ar
    35    16    17   ar
    36    17    37    1
    37    37    38    2
    38    37    39   am
    39    39    41    1
    40    41    42    2
    41    41    43    2
    42    41    44    1
    43    44    45    1
    44    44    46    1
    45    17    18   ar
    46    18    19   ar
    47     6     1   ar
    48     9     7    1
    49    26    22    1
    50    19    11   ar
    51    12     4    1
    52    36    31    1
    53    19    14   ar
    54    30    23    1
    55    39    40    1
@<TRIPOS>MOLECULE
*****
 48 55 0 0 0
SMALL
GASTEIGER

@<TRIPOS>ATOM
      1 C         139.3496  139.9329  162.1555 C.ar    1  UNL1        0.1384
      2 C         140.4192  140.9256  162.5029 C.ar    1  UNL1        0.0369
      3 C         141.5381  141.1904  161.5396 C.ar    1  UNL1        0.0042
      4 C         141.5875  140.4626  160.2290 C.ar    1  UNL1        0.0117
      5 C         140.5180  139.4699  159.8816 C.ar    1  UNL1       -0.0176
      6 C         139.3990  139.2050  160.8448 C.ar    1  UNL1        0.0327
      7 C         140.3785  138.6419  158.6386 C.3     1  UNL1        0.0330
      8 C         140.0533  137.7324  157.4910 C.3     1  UNL1        0.0157
      9 C         141.2741  138.6022  157.4359 C.3     1  UNL1        0.0938
     10 C         142.5304  139.3806  157.1794 C.3     1  UNL1        0.1148
     11 N         143.2014  140.3910  158.0619 N.ar    1  UNL1       -0.3269
     12 C         142.7817  140.8725  159.4192 C.ar    1  UNL1        0.0555
     13 C         143.7865  141.8851  159.8829 C.ar    1  UNL1       -0.0053
     14 C         144.8271  142.0294  158.8122 C.ar    1  UNL1        0.0132
     15 C         146.0573  142.8825  158.7166 C.ar    1  UNL1        0.0013
     16 C         146.9258  142.8120  157.4957 C.ar    1  UNL1        0.0046
     17 C         146.5641  141.8885  156.3703 C.ar    1  UNL1        0.0563
     18 C         145.3340  141.0356  156.4658 C.ar    1  UNL1        0.0217
     19 C         144.4654  141.1060  157.6868 C.ar    1  UNL1        0.0597
     20 C         141.5113  137.9907  156.0869 C.2     1  UNL1        0.2268
     21 O         140.9286  138.6292  154.8611 O.2     1  UNL1       -0.2748
     22 N         142.3312  136.7406  155.9638 N.am    1  UNL1       -0.2800
     23 C         142.9745  135.9933  157.0941 C.3     1  UNL1        0.0913
     24 C         143.6926  134.8092  156.5175 C.3     1  UNL1        0.0230
     25 C         143.4931  134.8248  155.0309 C.3     1  UNL1        0.0230
     26 C         142.6517  136.0185  154.6888 C.3     1  UNL1        0.0913
     27 C         141.8091  137.2703  154.6423 C.3     1  UNL1        0.0922
     28 N         141.5719  137.8818  155.9914 N.3     1  UNL1       -0.2687
     29 C         140.7520  139.1319  156.1146 C.3     1  UNL1        0.0897
     30 C         142.1546  137.2433  157.2172 C.3     1  UNL1        0.0922
     31 C         143.7560  142.6237  161.1880 C.3     1  UNL1        0.0238
     32 C         144.5912  142.1470  162.3393 C.3     1  UNL1        0.0044
     33 C         144.5608  142.8856  163.6443 C.3     1  UNL1        0.0003
     34 C         143.6953  144.1010  163.7984 C.3     1  UNL1        0.0000
     35 C         142.8601  144.5777  162.6472 C.3     1  UNL1        0.0003
     36 C         142.8905  143.8391  161.3420 C.3     1  UNL1        0.0044
     37 C         147.4326  141.8181  155.1493 C.2     1  UNL1        0.2640
     38 O         146.8548  141.3590  153.8434 O.2     1  UNL1       -0.2686
     39 N         148.8789  142.2067  155.2343 N.am    1  UNL1       -0.1853
     40 H         149.2582  142.5080  156.0914 H       1  UNL1        0.1765
     41 S         149.7475  142.1363  154.0134 S.O2    1  UNL1        0.0545
     42 O         150.4294  140.9210  154.5687 O.2     1  UNL1       -0.1545
     43 O         149.0657  143.3515  153.4581 O.2     1  UNL1       -0.1545
     44 C         150.6161  142.0657  152.7925 C.3     1  UNL1        0.1490
     45 C         150.7806  140.7654  152.0632 C.3     1  UNL1        0.0273
     46 C         151.3202  143.2956  152.3011 C.3     1  UNL1        0.0273
     47 C         138.4749  139.7612  164.5958 C.3     1  UNL1        0.2525
     48 O         138.2308  139.6681  163.1187 O.3     1  UNL1       -0.4714
@<TRIPOS>BOND
     1    47    48    1
     2    48     1    1
     3     1     2   ar
     4     2     3   ar
     5     3     4   ar
     6     4     5   ar
     7     5     6   ar
     8     5     7    1
     9     7     8    1
    10     8     9    1
    11     9    20    1
    12    20    21    2
    13    20    22   am
    14    22    23    1
    15    23    24    1
    16    24    25    1
    17    25    26    1
    18    26    27    1
    19    27    28    1
    20    28    29    1
    21    28    30    1
    22     9    10    1
    23    10    11    1
    24    11    12   ar
    25    12    13   ar
    26    13    31    1
    27    31    32    1
    28    32    33    1
    29    33    34    1
    30    34    35    1
    31    35    36    1
    32    13    14   ar
    33    14    15   ar
    34    15    16   ar
    35    16    17   ar
    36    17    37    1
    37    37    38    2
    38    37    39   am
    39    39    41    1
    40    41    42    2
    41    41    43    2
    42    41    44    1
    43    44    45    1
    44    44    46    1
    45    17    18   ar
    46    18    19   ar
    47     6     1   ar
    48     9     7    1
    49    26    22    1
    50    19    11   ar
    51    12     4    1
    52    36    31    1
    53    19    14   ar
    54    30    23    1
    55    39    40    1
@<TRIPOS>MOLECULE
*****
 48 55 0 0 0
SMALL
GASTEIGER

@<TRIPOS>ATOM
      1 C         141.7567  142.3967  155.0154 C.ar    1  UNL1        0.1384
      2 C         141.6770  140.9271  155.3050 C.ar    1  UNL1        0.0369
      3 C         141.4567  140.4504  156.7101 C.ar    1  UNL1        0.0042
      4 C         141.3162  141.4433  157.8255 C.ar    1  UNL1        0.0117
      5 C         141.3960  142.9129  157.5360 C.ar    1  UNL1       -0.0176
      6 C         141.6162  143.3897  156.1309 C.ar    1  UNL1        0.0327
      7 C         141.2828  144.0623  158.4932 C.3     1  UNL1        0.0330
      8 C         141.1996  145.3423  159.2708 C.3     1  UNL1        0.0157
      9 C         141.0621  144.0258  159.9765 C.3     1  UNL1        0.0938
     10 C         140.8999  142.8310  160.8687 C.3     1  UNL1        0.1148
     11 N         140.9184  141.3776  160.4983 N.ar    1  UNL1       -0.3269
     12 C         141.1037  140.7600  159.1439 C.ar    1  UNL1        0.0555
     13 C         141.0430  139.2696  159.3018 C.ar    1  UNL1       -0.0053
     14 C         140.8201  138.9661  160.7538 C.ar    1  UNL1        0.0132
     15 C         140.6773  137.6716  161.4982 C.ar    1  UNL1        0.0013
     16 C         140.4576  137.6800  162.9820 C.ar    1  UNL1        0.0046
     17 C         140.3806  138.9829  163.7214 C.ar    1  UNL1        0.0563
     18 C         140.5234  140.2773  162.9770 C.ar    1  UNL1        0.0217
     19 C         140.7431  140.2689  161.4932 C.ar    1  UNL1        0.0597
     20 C         140.8973  144.8402  161.2254 C.2     1  UNL1        0.2268
     21 O         139.6254  145.5988  161.4638 O.2     1  UNL1       -0.2748
     22 N         142.0045  144.8959  162.2358 N.am    1  UNL1       -0.2800
     23 C         143.3263  144.1939  162.1351 C.3     1  UNL1        0.0913
     24 C         144.1229  144.5276  163.3615 C.3     1  UNL1        0.0230
     25 C         143.2934  145.4358  164.2202 C.3     1  UNL1        0.0230
     26 C         141.9842  145.6633  163.5245 C.3     1  UNL1        0.0913
     27 C         140.7825  145.7112  162.6119 C.3     1  UNL1        0.0922
     28 N         140.9472  144.8968  161.3630 N.3     1  UNL1       -0.2687
     29 C         139.8401  144.8411  160.3525 C.3     1  UNL1        0.0897
     30 C         142.2191  144.1382  161.1246 C.3     1  UNL1        0.0922
     31 C         141.1808  138.2600  158.2011 C.3     1  UNL1        0.0238
     32 C         142.5014  137.5913  157.9578 C.3     1  UNL1        0.0044
     33 C         142.6393  136.5817  156.8572 C.3     1  UNL1        0.0003
     34 C         141.4567  136.2406  155.9997 C.3     1  UNL1        0.0000
     35 C         140.1362  136.9093  156.2430 C.3     1  UNL1        0.0003
     36 C         139.9983  137.9189  157.3437 C.3     1  UNL1        0.0044
     37 C         140.1609  138.9913  165.2051 C.2     1  UNL1        0.2640
     38 O         139.1700  138.0491  165.8220 O.2     1  UNL1       -0.2686
     39 N         140.9320  139.9419  166.0722 N.am    1  UNL1       -0.1853
     40 H         141.5823  140.5603  165.6673 H       1  UNL1        0.1765
     41 S         140.7123  139.9504  167.5560 S.O2    1  UNL1        0.0545
     42 O         141.9807  139.1729  167.7481 O.2     1  UNL1       -0.1545
     43 O         139.4440  140.7279  167.3638 O.2     1  UNL1       -0.1545
     44 C         140.4927  139.9589  169.0397 C.3     1  UNL1        0.1490
     45 C         141.6016  139.5521  169.9644 C.3     1  UNL1        0.0273
     46 C         139.1642  140.3741  169.5989 C.3     1  UNL1        0.0273
     47 C         143.3508  143.2738  153.1609 C.3     1  UNL1        0.2525
     48 O         141.9769  142.8734  153.6104 O.3     1  UNL1       -0.4714
@<TRIPOS>BOND
     1    47    48    1
     2    48     1    1
     3     1     2   ar
     4     2     3   ar
     5     3     4   ar
     6     4     5   ar
     7     5     6   ar
     8     5     7    1
     9     7     8    1
    10     8     9    1
    11     9    20    1
    12    20    21    2
    13    20    22   am
    14    22    23    1
    15    23    24    1
    16    24    25    1
    17    25    26    1
    18    26    27    1
    19    27    28    1
    20    28    29    1
    21    28    30    1
    22     9    10    1
    23    10    11    1
    24    11    12   ar
    25    12    13   ar
    26    13    31    1
    27    31    32    1
    28    32    33    1
    29    33    34    1
    30    34    35    1
    31    35    36    1
    32    13    14   ar
    33    14    15   ar
    34    15    16   ar
    35    16    17   ar
    36    17    37    1
    37    37    38    2
    38    37    39   am
    39    39    41    1
    40    41    42    2
    41    41    43    2
    42    41    44    1
    43    44    45    1
    44    44    46    1
    45    17    18   ar
    46    18    19   ar
    47     6     1   ar
    48     9     7    1
    49    26    22    1
    50    19    11   ar
    51    12     4    1
    52    36    31    1
    53    19    14   ar
    54    30    23    1
    55    39    40    1
@<TRIPOS>MOLECULE
*****
 48 55 0 0 0
SMALL
GASTEIGER

@<TRIPOS>ATOM
      1 C         140.5034  143.7261  163.6858 C.ar    1  UNL1        0.1384
      2 C         141.1824  142.4607  164.1193 C.ar    1  UNL1        0.0369
      3 C         141.5028  141.3980  163.1103 C.ar    1  UNL1        0.0042
      4 C         141.1442  141.6006  161.6681 C.ar    1  UNL1        0.0117
      5 C         140.4653  142.8659  161.2345 C.ar    1  UNL1       -0.0176
      6 C         140.1449  143.9287  162.2435 C.ar    1  UNL1        0.0327
      7 C         140.0247  143.2666  159.8578 C.3     1  UNL1        0.0330
      8 C         139.5120  143.8564  158.5775 C.3     1  UNL1        0.0157
      9 C         140.1543  142.5009  158.5745 C.3     1  UNL1        0.0938
     10 C         140.7565  141.1454  158.3510 C.3     1  UNL1        0.1148
     11 N         141.3778  140.2207  159.3555 N.ar    1  UNL1       -0.3269
     12 C         141.5503  140.4234  160.8318 C.ar    1  UNL1        0.0555
     13 C         142.2285  139.2076  161.3904 C.ar    1  UNL1       -0.0053
     14 C         142.4750  138.2537  160.2593 C.ar    1  UNL1        0.0132
     15 C         143.1105  136.8957  160.2121 C.ar    1  UNL1        0.0013
     16 C         143.2200  136.1639  158.9073 C.ar    1  UNL1        0.0046
     17 C         142.6942  136.7901  157.6497 C.ar    1  UNL1        0.0563
     18 C         142.0589  138.1480  157.6970 C.ar    1  UNL1        0.0217
     19 C         141.9492  138.8799  159.0018 C.ar    1  UNL1        0.0597
     20 C         139.8857  142.5009  157.0987 C.2     1  UNL1        0.2268
     21 O         140.9116  143.0459  156.1497 O.2     1  UNL1       -0.2748
     22 N         138.5913  141.9560  156.5720 N.am    1  UNL1       -0.2800
     23 C         137.4767  141.3811  157.3950 C.3     1  UNL1        0.0913
     24 C         136.3807  140.9601  156.4613 C.3     1  UNL1        0.0230
     25 C         136.8180  141.2747  155.0614 C.3     1  UNL1        0.0230
     26 C         138.1842  141.8902  155.1298 C.3     1  UNL1        0.0913
     27 C         139.5285  142.4710  155.4969 C.3     1  UNL1        0.0922
     28 N         139.7970  142.4710  156.9727 N.3     1  UNL1       -0.2687
     29 C         141.0915  143.0160  157.4995 C.3     1  UNL1        0.0897
     30 C         138.7712  141.9261  157.9217 C.3     1  UNL1        0.0922
     31 C         142.5957  138.9849  162.8275 C.3     1  UNL1        0.0238
     32 C         143.9159  139.4706  163.3483 C.3     1  UNL1        0.0044
     33 C         144.2831  139.2479  164.7853 C.3     1  UNL1        0.0003
     34 C         143.3301  138.5394  165.7019 C.3     1  UNL1        0.0000
     35 C         142.0099  138.0538  165.1812 C.3     1  UNL1        0.0003
     36 C         141.6427  138.2765  163.7440 C.3     1  UNL1        0.0044
     37 C         142.8038  136.0583  156.3450 C.2     1  UNL1        0.2640
     38 O         144.0203  136.2356  155.4855 O.2     1  UNL1       -0.2686
     39 N         141.6969  135.1493  155.8996 N.am    1  UNL1       -0.1853
     40 H         140.8985  135.0329  156.4637 H       1  UNL1        0.1765
     41 S         141.8064  134.4175  154.5948 S.O2    1  UNL1        0.0545
     42 O         142.4464  133.2579  155.2990 O.2     1  UNL1       -0.1545
     43 O         141.1663  135.5770  153.8907 O.2     1  UNL1       -0.1545
     44 C         141.9159  133.6856  153.2901 C.3     1  UNL1        0.1490
     45 C         142.4666  132.2908  153.2565 C.3     1  UNL1        0.0273
     46 C         141.4747  134.3486  152.0190 C.3     1  UNL1        0.0273
     47 C         138.8600  144.7776  165.4014 C.3     1  UNL1        0.2525
     48 O         140.1831  144.7888  164.6947 O.3     1  UNL1       -0.4714
@<TRIPOS>BOND
     1    47    48    1
     2    48     1    1
     3     1     2   ar
     4     2     3   ar
     5     3     4   ar
     6     4     5   ar
     7     5     6   ar
     8     5     7    1
     9     7     8    1
    10     8     9    1
    11     9    20    1
    12    20    21    2
    13    20    22   am
    14    22    23    1
    15    23    24    1
    16    24    25    1
    17    25    26    1
    18    26    27    1
    19    27    28    1
    20    28    29    1
    21    28    30    1
    22     9    10    1
    23    10    11    1
    24    11    12   ar
    25    12    13   ar
    26    13    31    1
    27    31    32    1
    28    32    33    1
    29    33    34    1
    30    34    35    1
    31    35    36    1
    32    13    14   ar
    33    14    15   ar
    34    15    16   ar
    35    16    17   ar
    36    17    37    1
    37    37    38    2
    38    37    39   am
    39    39    41    1
    40    41    42    2
    41    41    43    2
    42    41    44    1
    43    44    45    1
    44    44    46    1
    45    17    18   ar
    46    18    19   ar
    47     6     1   ar
    48     9     7    1
    49    26    22    1
    50    19    11   ar
    51    12     4    1
    52    36    31    1
    53    19    14   ar
    54    30    23    1
    55    39    40    1
@<TRIPOS>MOLECULE
*****
 48 55 0 0 0
SMALL
GASTEIGER

@<TRIPOS>ATOM
      1 C         140.5655  141.4682  153.8802 C.ar    1  UNL1        0.1384
      2 C         141.1743  140.1471  154.2467 C.ar    1  UNL1        0.0369
      3 C         141.5665  139.8706  155.6679 C.ar    1  UNL1        0.0042
      4 C         141.3500  140.9149  156.7225 C.ar    1  UNL1        0.0117
      5 C         140.7413  142.2360  156.3561 C.ar    1  UNL1       -0.0176
      6 C         140.3490  142.5126  154.9349 C.ar    1  UNL1        0.0327
      7 C         140.4410  143.4062  157.2451 C.3     1  UNL1        0.0330
      8 C         140.0638  144.6761  157.9487 C.3     1  UNL1        0.0157
      9 C         140.6754  143.5445  158.7202 C.3     1  UNL1        0.0938
     10 C         141.2679  142.5466  159.6706 C.3     1  UNL1        0.1148
     11 N         141.7724  141.1640  159.3806 N.ar    1  UNL1       -0.3269
     12 C         141.8089  140.4379  158.0686 C.ar    1  UNL1        0.0555
     13 C         142.4061  139.0825  158.3054 C.ar    1  UNL1       -0.0053
     14 C         142.7386  138.9709  159.7638 C.ar    1  UNL1        0.0132
     15 C         143.3476  137.8640  160.5727 C.ar    1  UNL1        0.0013
     16 C         143.5647  138.0437  162.0460 C.ar    1  UNL1        0.0046
     17 C         143.1730  139.3302  162.7104 C.ar    1  UNL1        0.0563
     18 C         142.5642  140.4370  161.9016 C.ar    1  UNL1        0.0217
     19 C         142.3469  140.2574  160.4283 C.ar    1  UNL1        0.0597
     20 C         140.5474  144.4398  159.9170 C.2     1  UNL1        0.2268
     21 O         141.4539  145.6254  160.0670 O.2     1  UNL1       -0.2748
     22 N         139.5130  144.1493  160.9636 N.am    1  UNL1       -0.2800
     23 C         138.5413  143.0067  160.9498 C.3     1  UNL1        0.0913
     24 C         137.6963  143.1019  162.1856 C.3     1  UNL1        0.0230
     25 C         138.1459  144.3033  162.9631 C.3     1  UNL1        0.0230
     26 C         139.2686  144.9506  162.2079 C.3     1  UNL1        0.0913
     27 C         140.3543  145.3781  161.2499 C.3     1  UNL1        0.0922
     28 N         140.4823  144.4828  160.0531 N.3     1  UNL1       -0.2687
     29 C         141.5167  144.7731  159.0064 C.3     1  UNL1        0.0897
     30 C         139.5757  143.2971  159.9031 C.3     1  UNL1        0.0922
     31 C         142.6313  138.0244  157.2664 C.3     1  UNL1        0.0238
     32 C         141.6363  136.9143  157.0984 C.3     1  UNL1        0.0044
     33 C         141.8614  135.8563  156.0595 C.3     1  UNL1        0.0003
     34 C         143.0815  135.9080  155.1883 C.3     1  UNL1        0.0000
     35 C         144.0763  137.0179  155.3562 C.3     1  UNL1        0.0003
     36 C         143.8512  138.0761  156.3953 C.3     1  UNL1        0.0044
     37 C         143.3902  139.5099  164.1837 C.2     1  UNL1        0.2640
     38 O         144.6215  138.9519  164.8338 O.2     1  UNL1       -0.2686
     39 N         142.3762  140.2475  165.0069 N.am    1  UNL1       -0.1853
     40 H         141.5681  140.6138  164.5801 H       1  UNL1        0.1765
     41 S         142.5933  140.4273  166.4801 S.O2    1  UNL1        0.0545
     42 O         141.8749  139.1370  166.7433 O.2     1  UNL1       -0.1545
     43 O         143.3116  141.7175  166.2170 O.2     1  UNL1       -0.1545
     44 C         142.8103  140.6069  167.9534 C.3     1  UNL1        0.1490
     45 C         142.6569  139.4389  168.8820 C.3     1  UNL1        0.0273
     46 C         143.1808  141.9545  168.4980 C.3     1  UNL1        0.0273
     47 C         138.7807  141.4398  151.9925 C.3     1  UNL1        0.2525
     48 O         140.1733  141.7447  152.4592 O.3     1  UNL1       -0.4714
@<TRIPOS>BOND
     1    47    48    1
     2    48     1    1
     3     1     2   ar
     4     2     3   ar
     5     3     4   ar
     6     4     5   ar
     7     5     6   ar
     8     5     7    1
     9     7     8    1
    10     8     9    1
    11     9    20    1
    12    20    21    2
    13    20    22   am
    14    22    23    1
    15    23    24    1
    16    24    25    1
    17    25    26    1
    18    26    27    1
    19    27    28    1
    20    28    29    1
    21    28    30    1
    22     9    10    1
    23    10    11    1
    24    11    12   ar
    25    12    13   ar
    26    13    31    1
    27    31    32    1
    28    32    33    1
    29    33    34    1
    30    34    35    1
    31    35    36    1
    32    13    14   ar
    33    14    15   ar
    34    15    16   ar
    35    16    17   ar
    36    17    37    1
    37    37    38    2
    38    37    39   am
    39    39    41    1
    40    41    42    2
    41    41    43    2
    42    41    44    1
    43    44    45    1
    44    44    46    1
    45    17    18   ar
    46    18    19   ar
    47     6     1   ar
    48     9     7    1
    49    26    22    1
    50    19    11   ar
    51    12     4    1
    52    36    31    1
    53    19    14   ar
    54    30    23    1
    55    39    40    1
@<TRIPOS>MOLECULE
*****
 48 55 0 0 0
SMALL
GASTEIGER

@<TRIPOS>ATOM
      1 C         138.5617  145.5599  155.2203 C.ar    1  UNL1        0.1384
      2 C         137.5824  144.4408  155.0243 C.ar    1  UNL1        0.0369
      3 C         138.0553  143.0175  155.0487 C.ar    1  UNL1        0.0042
      4 C         139.5074  142.7133  155.2689 C.ar    1  UNL1        0.0117
      5 C         140.4868  143.8323  155.4649 C.ar    1  UNL1       -0.0176
      6 C         140.0140  145.2557  155.4406 C.ar    1  UNL1        0.0327
      7 C         141.9664  143.7504  155.6975 C.3     1  UNL1        0.0330
      8 C         143.4403  143.8923  155.9372 C.3     1  UNL1        0.0157
      9 C         142.8321  142.5290  155.7916 C.3     1  UNL1        0.0938
     10 C         142.4319  141.0879  155.6763 C.3     1  UNL1        0.1148
     11 N         141.0673  140.5123  155.4385 N.ar    1  UNL1       -0.3269
     12 C         139.7658  141.2357  155.2572 C.ar    1  UNL1        0.0555
     13 C         138.6907  140.2106  155.0494 C.ar    1  UNL1       -0.0053
     14 C         139.3278  138.8536  155.1022 C.ar    1  UNL1        0.0132
     15 C         138.7602  137.4721  154.9624 C.ar    1  UNL1        0.0013
     16 C         139.6614  136.2773  155.0631 C.ar    1  UNL1        0.0046
     17 C         141.1302  136.4639  155.3036 C.ar    1  UNL1        0.0563
     18 C         141.6978  137.8452  155.4434 C.ar    1  UNL1        0.0217
     19 C         140.7966  139.0402  155.3427 C.ar    1  UNL1        0.0597
     20 C         144.2245  142.0094  155.9947 C.2     1  UNL1        0.2268
     21 O         144.7052  141.6719  157.3749 O.2     1  UNL1       -0.2748
     22 N         145.1361  141.8274  154.8175 N.am    1  UNL1       -0.2800
     23 C         144.7971  142.1207  153.3861 C.3     1  UNL1        0.0913
     24 C         145.9984  141.7946  152.5490 C.3     1  UNL1        0.0230
     25 C         147.0799  141.2998  153.4632 C.3     1  UNL1        0.0230
     26 C         146.5469  141.3200  154.8651 C.3     1  UNL1        0.0913
     27 C         145.7586  141.4456  156.1465 C.3     1  UNL1        0.0922
     28 N         144.3662  141.9652  155.9434 N.3     1  UNL1       -0.2687
     29 C         143.4544  142.1473  157.1206 C.3     1  UNL1        0.0897
     30 C         143.8855  142.3027  154.5632 C.3     1  UNL1        0.0922
     31 C         137.2343  140.4927  154.8276 C.3     1  UNL1        0.0238
     32 C         136.3149  140.6567  156.0015 C.3     1  UNL1        0.0044
     33 C         134.8586  140.9388  155.7798 C.3     1  UNL1        0.0003
     34 C         134.3214  141.0570  154.3843 C.3     1  UNL1        0.0000
     35 C         135.2407  140.8930  153.2104 C.3     1  UNL1        0.0003
     36 C         136.6972  140.6108  153.4321 C.3     1  UNL1        0.0044
     37 C         142.0314  135.2690  155.4043 C.2     1  UNL1        0.2640
     38 O         143.4989  135.4110  155.1276 O.2     1  UNL1       -0.2686
     39 N         141.4653  133.9322  155.7817 N.am    1  UNL1       -0.1853
     40 H         140.5022  133.8391  155.9633 H       1  UNL1        0.1765
     41 S         142.3664  132.7373  155.8824 S.O2    1  UNL1        0.0545
     42 O         142.6991  133.1076  157.2975 O.2     1  UNL1       -0.1545
     43 O         142.0338  132.3671  154.4675 O.2     1  UNL1       -0.1545
     44 C         143.2676  131.5425  155.9833 C.3     1  UNL1        0.1490
     45 C         144.7475  131.7303  156.1399 C.3     1  UNL1        0.0273
     46 C         142.6888  130.1598  155.9274 C.3     1  UNL1        0.0273
     47 C         139.0796  148.1045  155.3009 C.3     1  UNL1        0.2525
     48 O         138.0889  146.9832  155.1960 O.3     1  UNL1       -0.4714
@<TRIPOS>BOND
     1    47    48    1
     2    48     1    1
     3     1     2   ar
     4     2     3   ar
     5     3     4   ar
     6     4     5   ar
     7     5     6   ar
     8     5     7    1
     9     7     8    1
    10     8     9    1
    11     9    20    1
    12    20    21    2
    13    20    22   am
    14    22    23    1
    15    23    24    1
    16    24    25    1
    17    25    26    1
    18    26    27    1
    19    27    28    1
    20    28    29    1
    21    28    30    1
    22     9    10    1
    23    10    11    1
    24    11    12   ar
    25    12    13   ar
    26    13    31    1
    27    31    32    1
    28    32    33    1
    29    33    34    1
    30    34    35    1
    31    35    36    1
    32    13    14   ar
    33    14    15   ar
    34    15    16   ar
    35    16    17   ar
    36    17    37    1
    37    37    38    2
    38    37    39   am
    39    39    41    1
    40    41    42    2
    41    41    43    2
    42    41    44    1
    43    44    45    1
    44    44    46    1
    45    17    18   ar
    46    18    19   ar
    47     6     1   ar
    48     9     7    1
    49    26    22    1
    50    19    11   ar
    51    12     4    1
    52    36    31    1
    53    19    14   ar
    54    30    23    1
    55    39    40    1
@<TRIPOS>MOLECULE
*****
 48 55 0 0 0
SMALL
GASTEIGER

@<TRIPOS>ATOM
      1 C         139.9596  142.9288  155.9053 C.ar    1  UNL1        0.1384
      2 C         140.2713  141.4659  156.0177 C.ar    1  UNL1        0.0369
      3 C         140.5802  140.8655  157.3572 C.ar    1  UNL1        0.0042
      4 C         140.5774  141.7281  158.5842 C.ar    1  UNL1        0.0117
      5 C         140.2658  143.1910  158.4720 C.ar    1  UNL1       -0.0176
      6 C         139.9569  143.7915  157.1325 C.ar    1  UNL1        0.0327
      7 C         140.2096  144.2216  159.5605 C.3     1  UNL1        0.0330
      8 C         140.1013  145.3969  160.4861 C.3     1  UNL1        0.0157
      9 C         140.4512  144.0436  161.0302 C.3     1  UNL1        0.0938
     10 C         140.8087  142.7912  161.7743 C.3     1  UNL1        0.1148
     11 N         141.0129  141.4074  161.2326 N.ar    1  UNL1       -0.3269
     12 C         140.9099  140.9343  159.8128 C.ar    1  UNL1        0.0555
     13 C         141.2045  139.4637  159.7918 C.ar    1  UNL1       -0.0053
     14 C         141.4895  139.0280  161.1985 C.ar    1  UNL1        0.0132
     15 C         141.8416  137.6924  161.7838 C.ar    1  UNL1        0.0013
     16 C         142.0752  137.5582  163.2594 C.ar    1  UNL1        0.0046
     17 C         141.9567  138.7595  164.1498 C.ar    1  UNL1        0.0563
     18 C         141.6047  140.0950  163.5646 C.ar    1  UNL1        0.0217
     19 C         141.3710  140.2293  162.0889 C.ar    1  UNL1        0.0597
     20 C         140.5019  144.7191  162.3686 C.2     1  UNL1        0.2268
     21 O         141.6908  145.5534  162.7431 O.2     1  UNL1       -0.2748
     22 N         139.3636  144.5601  163.3324 N.am    1  UNL1       -0.2800
     23 C         138.1155  143.7615  163.0988 C.3     1  UNL1        0.0913
     24 C         137.2541  143.8797  164.3212 C.3     1  UNL1        0.0230
     25 C         137.9698  144.7514  165.3101 C.3     1  UNL1        0.0230
     26 C         139.2735  145.1718  164.6990 C.3     1  UNL1        0.0913
     27 C         140.4934  145.4302  163.8480 C.3     1  UNL1        0.0922
     28 N         140.4428  144.7548  162.5096 N.3     1  UNL1       -0.2687
     29 C         141.5811  144.9137  161.5457 C.3     1  UNL1        0.0897
     30 C         139.2538  143.9204  162.1351 C.3     1  UNL1        0.0922
     31 C         141.2126  138.5834  158.5774 C.3     1  UNL1        0.0238
     32 C         139.9177  138.1275  157.9728 C.3     1  UNL1        0.0044
     33 C         139.9258  137.2472  156.7584 C.3     1  UNL1        0.0003
     34 C         141.2288  136.8226  156.1485 C.3     1  UNL1        0.0000
     35 C         142.5237  137.2784  156.7531 C.3     1  UNL1        0.0003
     36 C         142.5156  138.1588  157.9675 C.3     1  UNL1        0.0044
     37 C         142.1904  138.6254  165.6254 C.2     1  UNL1        0.2640
     38 O         143.0123  137.4875  166.1542 O.2     1  UNL1       -0.2686
     39 N         141.6021  139.6291  166.5722 N.am    1  UNL1       -0.1853
     40 H         141.0627  140.3760  166.2251 H       1  UNL1        0.1765
     41 S         141.8357  139.4950  168.0478 S.O2    1  UNL1        0.0545
     42 O         143.3157  139.5873  167.8218 O.2     1  UNL1       -0.1545
     43 O         140.3557  139.4028  168.2738 O.2     1  UNL1       -0.1545
     44 C         142.0693  139.3610  169.5234 C.3     1  UNL1        0.1490
     45 C         141.4392  140.3352  170.4741 C.3     1  UNL1        0.0273
     46 C         142.9331  138.2527  170.0483 C.3     1  UNL1        0.0273
     47 C         138.2427  143.9177  154.2249 C.3     1  UNL1        0.2525
     48 O         139.6508  143.5292  154.5659 O.3     1  UNL1       -0.4714
@<TRIPOS>BOND
     1    47    48    1
     2    48     1    1
     3     1     2   ar
     4     2     3   ar
     5     3     4   ar
     6     4     5   ar
     7     5     6   ar
     8     5     7    1
     9     7     8    1
    10     8     9    1
    11     9    20    1
    12    20    21    2
    13    20    22   am
    14    22    23    1
    15    23    24    1
    16    24    25    1
    17    25    26    1
    18    26    27    1
    19    27    28    1
    20    28    29    1
    21    28    30    1
    22     9    10    1
    23    10    11    1
    24    11    12   ar
    25    12    13   ar
    26    13    31    1
    27    31    32    1
    28    32    33    1
    29    33    34    1
    30    34    35    1
    31    35    36    1
    32    13    14   ar
    33    14    15   ar
    34    15    16   ar
    35    16    17   ar
    36    17    37    1
    37    37    38    2
    38    37    39   am
    39    39    41    1
    40    41    42    2
    41    41    43    2
    42    41    44    1
    43    44    45    1
    44    44    46    1
    45    17    18   ar
    46    18    19   ar
    47     6     1   ar
    48     9     7    1
    49    26    22    1
    50    19    11   ar
    51    12     4    1
    52    36    31    1
    53    19    14   ar
    54    30    23    1
    55    39    40    1
@<TRIPOS>MOLECULE
*****
 48 55 0 0 0
SMALL
GASTEIGER

@<TRIPOS>ATOM
      1 C         142.9547  143.7465  154.2390 C.ar    1  UNL1        0.1384
      2 C         142.8257  142.2520  154.2480 C.ar    1  UNL1        0.0369
      3 C         142.3358  141.5490  155.4792 C.ar    1  UNL1        0.0042
      4 C         141.9748  142.3402  156.7012 C.ar    1  UNL1        0.0117
      5 C         142.1037  143.8346  156.6922 C.ar    1  UNL1       -0.0176
      6 C         142.5937  144.5378  155.4611 C.ar    1  UNL1        0.0327
      7 C         141.8000  144.8063  157.7939 C.3     1  UNL1        0.0330
      8 C         141.5604  145.9364  158.7507 C.3     1  UNL1        0.0157
      9 C         141.2924  144.5234  159.1768 C.3     1  UNL1        0.0938
     10 C         140.9630  143.1990  159.7994 C.3     1  UNL1        0.1148
     11 N         141.0600  141.8305  159.1930 N.ar    1  UNL1       -0.3269
     12 C         141.5103  141.4483  157.8142 C.ar    1  UNL1        0.0555
     13 C         141.4259  139.9554  157.6961 C.ar    1  UNL1       -0.0053
     14 C         140.9235  139.4149  159.0021 C.ar    1  UNL1        0.0132
     15 C         140.6426  138.0171  159.4684 C.ar    1  UNL1        0.0013
     16 C         140.1357  137.7783  160.8598 C.ar    1  UNL1        0.0046
     17 C         139.9095  138.9372  161.7849 C.ar    1  UNL1        0.0563
     18 C         140.1904  140.3349  161.3186 C.ar    1  UNL1        0.0217
     19 C         140.6973  140.5738  159.9271 C.ar    1  UNL1        0.0597
     20 C         140.8821  145.1168  160.4919 C.2     1  UNL1        0.2268
     21 O         139.5705  145.8341  160.6146 O.2     1  UNL1       -0.2748
     22 N         141.7836  144.9929  161.6844 N.am    1  UNL1       -0.2800
     23 C         143.1177  144.3078  161.7137 C.3     1  UNL1        0.0913
     24 C         143.6678  144.4239  163.1044 C.3     1  UNL1        0.0230
     25 C         142.6736  145.1806  163.9345 C.3     1  UNL1        0.0230
     26 C         141.5092  145.5322  163.0569 C.3     1  UNL1        0.0913
     27 C         140.4943  145.7425  161.9591 C.3     1  UNL1        0.0922
     28 N         140.9046  145.1491  160.6439 N.3     1  UNL1       -0.2687
     29 C         140.0032  145.2729  159.4514 C.3     1  UNL1        0.0897
     30 C         142.2162  144.4318  160.5213 C.3     1  UNL1        0.0922
     31 C         141.7815  139.1451  156.4850 C.3     1  UNL1        0.0238
     32 C         143.1809  138.6345  156.3086 C.3     1  UNL1        0.0044
     33 C         143.5365  137.8243  155.0975 C.3     1  UNL1        0.0003
     34 C         142.4928  137.5246  154.0626 C.3     1  UNL1        0.0000
     35 C         141.0935  138.0351  154.2390 C.3     1  UNL1        0.0003
     36 C         140.7378  138.8454  155.4502 C.3     1  UNL1        0.0044
     37 C         139.4026  138.6984  163.1762 C.2     1  UNL1        0.2640
     38 O         138.6638  137.4334  163.4985 O.2     1  UNL1       -0.2686
     39 N         139.6344  139.7246  164.2454 N.am    1  UNL1       -0.1853
     40 H         140.1193  140.5549  164.0339 H       1  UNL1        0.1765
     41 S         139.1275  139.4859  165.6368 S.O2    1  UNL1        0.0545
     42 O         137.8329  140.1543  165.2798 O.2     1  UNL1       -0.1545
     43 O         140.4220  138.8176  165.9939 O.2     1  UNL1       -0.1545
     44 C         138.6205  139.2473  167.0282 C.3     1  UNL1        0.1490
     45 C         137.4652  138.3181  167.2564 C.3     1  UNL1        0.0273
     46 C         139.2688  139.9377  168.1913 C.3     1  UNL1        0.0273
     47 C         144.8435  144.9887  152.9588 C.3     1  UNL1        0.2525
     48 O         143.4446  144.4495  153.0079 O.3     1  UNL1       -0.4714
@<TRIPOS>BOND
     1    47    48    1
     2    48     1    1
     3     1     2   ar
     4     2     3   ar
     5     3     4   ar
     6     4     5   ar
     7     5     6   ar
     8     5     7    1
     9     7     8    1
    10     8     9    1
    11     9    20    1
    12    20    21    2
    13    20    22   am
    14    22    23    1
    15    23    24    1
    16    24    25    1
    17    25    26    1
    18    26    27    1
    19    27    28    1
    20    28    29    1
    21    28    30    1
    22     9    10    1
    23    10    11    1
    24    11    12   ar
    25    12    13   ar
    26    13    31    1
    27    31    32    1
    28    32    33    1
    29    33    34    1
    30    34    35    1
    31    35    36    1
    32    13    14   ar
    33    14    15   ar
    34    15    16   ar
    35    16    17   ar
    36    17    37    1
    37    37    38    2
    38    37    39   am
    39    39    41    1
    40    41    42    2
    41    41    43    2
    42    41    44    1
    43    44    45    1
    44    44    46    1
    45    17    18   ar
    46    18    19   ar
    47     6     1   ar
    48     9     7    1
    49    26    22    1
    50    19    11   ar
    51    12     4    1
    52    36    31    1
    53    19    14   ar
    54    30    23    1
    55    39    40    1
