@<TRIPOS>MOLECULE
*****
 45 49 0 0 0
SMALL
GASTEIGER

@<TRIPOS>ATOM
      1 C         138.2384  139.9786  164.7298 C.ar    1  UNL1        0.0846
      2 C         137.6903  141.3189  164.3383 C.ar    1  UNL1        0.0174
      3 C         137.6586  141.7235  162.8942 C.ar    1  UNL1       -0.0031
      4 C         138.1751  140.7878  161.8417 C.ar    1  UNL1       -0.0218
      5 C         138.7232  139.4476  162.2332 C.ar    1  UNL1        0.0091
      6 C         138.7549  139.0430  163.6773 C.ar    1  UNL1        0.1477
      7 C         139.2839  138.3722  161.3504 C.3     1  UNL1        0.0292
      8 C         139.4348  138.3716  159.8580 C.3     1  UNL1        0.0062
      9 C         139.0624  139.4460  158.8799 C.3     1  UNL1        0.0166
     10 C         138.4471  140.7866  159.1525 C.3     1  UNL1        0.0619
     11 C         138.0522  141.3837  160.4706 C.3     1  UNL1        0.0421
     12 N         138.1931  141.6433  157.9477 N.3     1  UNL1       -0.2713
     13 C         139.0366  142.8587  157.7003 C.3     1  UNL1        0.0896
     14 C         138.7826  143.7154  156.4955 C.3     1  UNL1        0.0897
     15 N         137.6850  143.3567  155.5380 N.3     1  UNL1       -0.2682
     16 C         136.8414  142.1412  155.7854 C.3     1  UNL1        0.0897
     17 C         137.0955  141.2845  156.9903 C.3     1  UNL1        0.0896
     18 C         137.4310  144.2133  154.3333 C.3     1  UNL1        0.1043
     19 C         136.9011  143.5966  153.0727 C.3     1  UNL1        0.1544
     20 O         135.8111  144.2819  152.3031 O.3     1  UNL1       -0.3805
     21 H         134.9986  144.2921  152.8328 H       1  UNL1        0.2105
     22 N         138.2700  139.5741  166.1739 N.pl3   1  UNL1       -0.2801
     23 H         137.5186  139.0688  166.5601 H       1  UNL1        0.1552
     24 C         141.8579  140.8802  167.2565 C.ar    1  UNL1        0.1472
     25 N         140.6812  140.5148  166.4009 N.ar    1  UNL1       -0.1976
     26 C         139.4467  139.9394  167.0294 C.ar    1  UNL1        0.2220
     27 N         139.3890  139.7294  168.5136 N.ar    1  UNL1       -0.2110
     28 C         140.5656  140.0947  169.3691 C.ar    1  UNL1        0.1160
     29 C         141.8001  140.6701  168.7406 C.ar    1  UNL1        0.1085
     30 CL        142.9767  141.0355  169.5961 Cl      1  UNL1       -0.0777
     31 N         143.0923  141.4555  166.6279 N.pl3   1  UNL1       -0.2970
     32 H         143.6371  142.1099  167.1220 H       1  UNL1        0.1536
     33 C         143.1066  141.8691  164.0629 C.ar    1  UNL1        0.0668
     34 C         143.5109  141.4473  162.6813 C.ar    1  UNL1        0.0058
     35 C         144.3052  140.1904  162.4832 C.ar    1  UNL1        0.0002
     36 C         144.6953  139.3552  163.6665 C.ar    1  UNL1        0.0013
     37 C         144.2909  139.7769  165.0480 C.ar    1  UNL1        0.0148
     38 C         143.4966  141.0338  165.2463 C.ar    1  UNL1        0.0537
     39 C         140.0287  144.3109  164.6233 C.3     1  UNL1        0.1109
     40 N         140.8231  143.0540  164.4251 N.am    1  UNL1       -0.2991
     41 C         142.3123  143.1259  164.2611 C.2     1  UNL1        0.2471
     42 O         143.0072  144.4548  164.2952 O.2     1  UNL1       -0.2701
     43 H         140.3669  142.1818  164.4028 H       1  UNL1        0.1498
     44 O         139.3031  137.7027  164.0688 O.3     1  UNL1       -0.4705
     45 C         140.7356  137.5736  164.4944 C.3     1  UNL1        0.2525
@<TRIPOS>BOND
     1    39    40    1
     2    40    41   am
     3    41    42    2
     4    41    33    1
     5    33    34   ar
     6    34    35   ar
     7    35    36   ar
     8    36    37   ar
     9    37    38   ar
    10    38    31    1
    11    31    24    1
    12    24    25   ar
    13    25    26   ar
    14    26    22    1
    15    22     1    1
    16     1     2   ar
    17     2     3   ar
    18     3     4   ar
    19     4     5   ar
    20     5     6   ar
    21     6    44    1
    22    44    45    1
    23     5     7    1
    24     7     8    1
    25     8     9    1
    26     9    10    1
    27    10    12    1
    28    12    13    1
    29    13    14    1
    30    14    15    1
    31    15    18    1
    32    18    19    1
    33    19    20    1
    34    15    16    1
    35    16    17    1
    36    10    11    1
    37    26    27   ar
    38    27    28   ar
    39    28    29   ar
    40    29    30    1
    41    38    33   ar
    42    29    24   ar
    43     6     1   ar
    44    17    12    1
    45    11     4    1
    46    40    43    1
    47    31    32    1
    48    22    23    1
    49    20    21    1
@<TRIPOS>MOLECULE
*****
 45 49 0 0 0
SMALL
GASTEIGER

@<TRIPOS>ATOM
      1 C         138.5307  139.0378  164.6327 C.ar    1  UNL1        0.0846
      2 C         139.3725  137.8384  164.3117 C.ar    1  UNL1        0.0174
      3 C         139.8142  137.5881  162.9002 C.ar    1  UNL1       -0.0031
      4 C         139.4140  138.5372  161.8096 C.ar    1  UNL1       -0.0218
      5 C         138.5722  139.7364  162.1306 C.ar    1  UNL1        0.0091
      6 C         138.1306  139.9868  163.5421 C.ar    1  UNL1        0.1477
      7 C         138.0661  140.7997  161.2014 C.3     1  UNL1        0.0292
      8 C         138.2768  140.9261  159.7216 C.3     1  UNL1        0.0062
      9 C         139.0455  140.0206  158.8057 C.3     1  UNL1        0.0166
     10 C         139.7936  138.7649  159.1432 C.3     1  UNL1        0.0619
     11 C         139.9575  138.1048  160.4801 C.3     1  UNL1        0.0421
     12 N         140.4666  138.0788  157.9917 N.3     1  UNL1       -0.2713
     13 C         139.6513  137.5797  156.8357 C.3     1  UNL1        0.0896
     14 C         140.3244  136.8935  155.6840 C.3     1  UNL1        0.0897
     15 N         141.8127  136.7065  155.6884 N.3     1  UNL1       -0.2682
     16 C         142.6280  137.2056  156.8444 C.3     1  UNL1        0.0897
     17 C         141.9549  137.8918  157.9960 C.3     1  UNL1        0.0896
     18 C         142.4858  136.0203  154.5368 C.3     1  UNL1        0.1043
     19 C         143.0532  134.6429  154.7122 C.3     1  UNL1        0.1544
     20 O         144.1479  134.4041  155.7095 O.3     1  UNL1       -0.3805
     21 H         144.9484  134.8751  155.4298 H       1  UNL1        0.2105
     22 N         138.0892  139.2880  166.0441 N.pl3   1  UNL1       -0.2801
     23 H         137.1653  139.0819  166.3148 H       1  UNL1        0.1552
     24 C         141.3151  141.0173  167.5782 C.ar    1  UNL1        0.1472
     25 N         140.3490  140.4530  166.5791 N.ar    1  UNL1       -0.1976
     26 C         139.0552  139.8523  167.0433 C.ar    1  UNL1        0.2220
     27 N         138.7276  139.8160  168.5067 N.ar    1  UNL1       -0.2110
     28 C         139.6936  140.3803  169.5058 C.ar    1  UNL1        0.1160
     29 C         140.9874  140.9809  169.0416 C.ar    1  UNL1        0.1085
     30 CL        141.9535  141.5452  170.0407 Cl      1  UNL1       -0.0777
     31 N         142.6088  141.6179  167.1140 N.pl3   1  UNL1       -0.2970
     32 H         142.9165  142.4745  167.4892 H       1  UNL1        0.1536
     33 C         144.1560  141.7054  165.0286 C.ar    1  UNL1        0.0668
     34 C         144.9809  141.0008  163.9926 C.ar    1  UNL1        0.0058
     35 C         145.0833  139.5044  164.0059 C.ar    1  UNL1        0.0002
     36 C         144.3609  138.7124  165.0551 C.ar    1  UNL1        0.0013
     37 C         143.5361  139.4169  166.0911 C.ar    1  UNL1        0.0148
     38 C         143.4336  140.9134  166.0779 C.ar    1  UNL1        0.0537
     39 C         143.1820  145.3878  163.9146 C.3     1  UNL1        0.1109
     40 N         143.2844  143.8913  163.9278 N.am    1  UNL1       -0.2991
     41 C         144.0536  143.2017  165.0154 C.2     1  UNL1        0.2471
     42 O         144.7205  144.0087  166.0897 O.2     1  UNL1       -0.2701
     43 H         142.8467  143.3617  163.2227 H       1  UNL1        0.1498
     44 O         137.2888  141.1861  163.8630 O.3     1  UNL1       -0.4705
     45 C         137.9212  142.4083  164.4599 C.3     1  UNL1        0.2525
@<TRIPOS>BOND
     1    39    40    1
     2    40    41   am
     3    41    42    2
     4    41    33    1
     5    33    34   ar
     6    34    35   ar
     7    35    36   ar
     8    36    37   ar
     9    37    38   ar
    10    38    31    1
    11    31    24    1
    12    24    25   ar
    13    25    26   ar
    14    26    22    1
    15    22     1    1
    16     1     2   ar
    17     2     3   ar
    18     3     4   ar
    19     4     5   ar
    20     5     6   ar
    21     6    44    1
    22    44    45    1
    23     5     7    1
    24     7     8    1
    25     8     9    1
    26     9    10    1
    27    10    12    1
    28    12    13    1
    29    13    14    1
    30    14    15    1
    31    15    18    1
    32    18    19    1
    33    19    20    1
    34    15    16    1
    35    16    17    1
    36    10    11    1
    37    26    27   ar
    38    27    28   ar
    39    28    29   ar
    40    29    30    1
    41    38    33   ar
    42    29    24   ar
    43     6     1   ar
    44    17    12    1
    45    11     4    1
    46    40    43    1
    47    31    32    1
    48    22    23    1
    49    20    21    1
@<TRIPOS>MOLECULE
*****
 45 49 0 0 0
SMALL
GASTEIGER

@<TRIPOS>ATOM
      1 C         140.0281  138.6692  159.8164 C.ar    1  UNL1        0.0846
      2 C         141.1268  138.3192  160.7757 C.ar    1  UNL1        0.0174
      3 C         141.0937  138.8475  162.1792 C.ar    1  UNL1       -0.0031
      4 C         139.9617  139.7259  162.6234 C.ar    1  UNL1       -0.0218
      5 C         138.8631  140.0759  161.6641 C.ar    1  UNL1        0.0091
      6 C         138.8962  139.5476  160.2607 C.ar    1  UNL1        0.1477
      7 C         137.6521  140.9291  161.9000 C.3     1  UNL1        0.0292
      8 C         137.2408  141.6430  163.1536 C.3     1  UNL1        0.0062
      9 C         137.9389  141.6800  164.4806 C.3     1  UNL1        0.0166
     10 C         139.2207  141.0123  164.8821 C.3     1  UNL1        0.0619
     11 C         140.1210  140.1426  164.0555 C.3     1  UNL1        0.0421
     12 N         139.6603  141.2450  166.2972 N.3     1  UNL1       -0.2713
     13 C         140.2478  142.5675  166.6922 C.3     1  UNL1        0.0896
     14 C         140.6875  142.8001  168.1074 C.3     1  UNL1        0.0897
     15 N         140.5396  141.7104  169.1275 N.3     1  UNL1       -0.2682
     16 C         139.9522  140.3879  168.7325 C.3     1  UNL1        0.0897
     17 C         139.5125  140.1553  167.3173 C.3     1  UNL1        0.0896
     18 C         140.9793  141.9431  170.5425 C.3     1  UNL1        0.1043
     19 C         142.4055  142.3044  170.8351 C.3     1  UNL1        0.1544
     20 O         142.8406  143.7391  170.7877 O.3     1  UNL1       -0.3805
     21 H         142.7734  144.0674  169.8774 H       1  UNL1        0.2105
     22 N         140.0613  138.1409  158.4130 N.pl3   1  UNL1       -0.2801
     23 H         139.2806  137.6654  158.0474 H       1  UNL1        0.1552
     24 C         143.2159  137.3454  156.1400 C.ar    1  UNL1        0.1472
     25 N         141.9931  137.1492  156.9865 N.ar    1  UNL1       -0.1976
     26 C         141.2840  138.3370  157.5665 C.ar    1  UNL1        0.2220
     27 N         141.7978  139.7209  157.3001 N.ar    1  UNL1       -0.2110
     28 C         143.0204  139.9171  156.4537 C.ar    1  UNL1        0.1160
     29 C         143.7295  138.7293  155.8737 C.ar    1  UNL1        0.1085
     30 CL        144.9523  138.9254  155.0272 Cl      1  UNL1       -0.0777
     31 N         143.9249  136.1576  155.5601 N.pl3   1  UNL1       -0.2970
     32 H         144.9079  136.1097  155.5866 H       1  UNL1        0.1536
     33 C         143.1052  133.6924  155.5921 C.ar    1  UNL1        0.0668
     34 C         142.3164  132.5775  154.9716 C.ar    1  UNL1        0.0058
     35 C         141.5587  132.8129  153.6986 C.ar    1  UNL1        0.0002
     36 C         141.5897  134.1632  153.0461 C.ar    1  UNL1        0.0013
     37 C         142.3784  135.2781  153.6666 C.ar    1  UNL1        0.0148
     38 C         143.1362  135.0427  154.9396 C.ar    1  UNL1        0.0537
     39 C         145.7389  132.2224  158.1714 C.3     1  UNL1        0.1109
     40 N         144.9811  132.4578  156.8984 N.am    1  UNL1       -0.2991
     41 C         143.8629  133.4569  156.8650 C.2     1  UNL1        0.2471
     42 O         143.5023  134.2207  158.1046 O.2     1  UNL1       -0.2701
     43 H         145.2178  131.9565  156.0848 H       1  UNL1        0.1498
     44 O         137.7974  139.8976  159.3014 O.3     1  UNL1       -0.4705
     45 C         138.0187  140.9553  158.2611 C.3     1  UNL1        0.2525
@<TRIPOS>BOND
     1    39    40    1
     2    40    41   am
     3    41    42    2
     4    41    33    1
     5    33    34   ar
     6    34    35   ar
     7    35    36   ar
     8    36    37   ar
     9    37    38   ar
    10    38    31    1
    11    31    24    1
    12    24    25   ar
    13    25    26   ar
    14    26    22    1
    15    22     1    1
    16     1     2   ar
    17     2     3   ar
    18     3     4   ar
    19     4     5   ar
    20     5     6   ar
    21     6    44    1
    22    44    45    1
    23     5     7    1
    24     7     8    1
    25     8     9    1
    26     9    10    1
    27    10    12    1
    28    12    13    1
    29    13    14    1
    30    14    15    1
    31    15    18    1
    32    18    19    1
    33    19    20    1
    34    15    16    1
    35    16    17    1
    36    10    11    1
    37    26    27   ar
    38    27    28   ar
    39    28    29   ar
    40    29    30    1
    41    38    33   ar
    42    29    24   ar
    43     6     1   ar
    44    17    12    1
    45    11     4    1
    46    40    43    1
    47    31    32    1
    48    22    23    1
    49    20    21    1
@<TRIPOS>MOLECULE
*****
 45 49 0 0 0
SMALL
GASTEIGER

@<TRIPOS>ATOM
      1 C         144.2106  141.7140  163.8120 C.ar    1  UNL1        0.0846
      2 C         144.1487  140.2168  163.7453 C.ar    1  UNL1        0.0174
      3 C         143.9655  139.5318  162.4235 C.ar    1  UNL1       -0.0031
      4 C         143.8443  140.3442  161.1682 C.ar    1  UNL1       -0.0218
      5 C         143.9062  141.8413  161.2350 C.ar    1  UNL1        0.0091
      6 C         144.0893  142.5263  162.5567 C.ar    1  UNL1        0.1477
      7 C         143.8074  142.8324  160.1132 C.3     1  UNL1        0.0292
      8 C         143.6223  142.5708  158.6478 C.3     1  UNL1        0.0062
      9 C         143.4903  141.2538  157.9423 C.3     1  UNL1        0.0166
     10 C         143.5107  139.8729  158.5277 C.3     1  UNL1        0.0619
     11 C         143.6683  139.4681  159.9634 C.3     1  UNL1        0.0421
     12 N         143.3528  138.7482  157.5480 N.3     1  UNL1       -0.2713
     13 C         143.7389  138.9447  156.1119 C.3     1  UNL1        0.0896
     14 C         143.5809  137.8199  155.1321 C.3     1  UNL1        0.0897
     15 N         143.0368  136.4986  155.5884 N.3     1  UNL1       -0.2682
     16 C         142.6507  136.3021  157.0245 C.3     1  UNL1        0.0897
     17 C         142.8087  137.4269  158.0043 C.3     1  UNL1        0.0896
     18 C         142.8789  135.3739  154.6086 C.3     1  UNL1        0.1043
     19 C         141.5433  134.7139  154.4334 C.3     1  UNL1        0.1544
     20 O         141.0866  133.6734  155.4125 O.3     1  UNL1       -0.3805
     21 H         141.6619  132.8950  155.3489 H       1  UNL1        0.2105
     22 N         144.3937  142.3989  165.1338 N.pl3   1  UNL1       -0.2801
     23 H         145.2178  142.9060  165.3156 H       1  UNL1        0.1552
     24 C         140.8501  141.8471  166.8335 C.ar    1  UNL1        0.1472
     25 N         141.9226  141.9348  165.7885 N.ar    1  UNL1       -0.1976
     26 C         143.3212  142.3113  166.1789 C.ar    1  UNL1        0.2220
     27 N         143.6472  142.6001  167.6143 N.ar    1  UNL1       -0.2110
     28 C         142.5747  142.5124  168.6593 C.ar    1  UNL1        0.1160
     29 C         141.1762  142.1360  168.2689 C.ar    1  UNL1        0.1085
     30 CL        140.1037  142.0483  169.3139 Cl      1  UNL1       -0.0777
     31 N         139.4516  141.4707  166.4431 N.pl3   1  UNL1       -0.2970
     32 H         138.6881  141.9871  166.7888 H       1  UNL1        0.1536
     33 C         138.9780  140.5413  164.0635 C.ar    1  UNL1        0.0668
     34 C         138.7429  139.3779  163.1463 C.ar    1  UNL1        0.0058
     35 C         138.7463  137.9804  163.6915 C.ar    1  UNL1        0.0002
     36 C         138.9848  137.7463  165.1538 C.ar    1  UNL1        0.0013
     37 C         139.2199  138.9097  166.0710 C.ar    1  UNL1        0.0148
     38 C         139.2165  140.3073  165.5259 C.ar    1  UNL1        0.0537
     39 C         137.7308  144.1744  163.0661 C.3     1  UNL1        0.1109
     40 N         137.7342  142.7769  163.6112 N.am    1  UNL1       -0.2991
     41 C         138.9746  141.9387  163.5184 C.2     1  UNL1        0.2471
     42 O         140.2117  142.4979  162.8804 O.2     1  UNL1       -0.2701
     43 H         136.9223  142.4099  164.0299 H       1  UNL1        0.1498
     44 O         144.1512  144.0236  162.6234 O.3     1  UNL1       -0.4705
     45 C         142.9657  144.8022  163.1114 C.3     1  UNL1        0.2525
@<TRIPOS>BOND
     1    39    40    1
     2    40    41   am
     3    41    42    2
     4    41    33    1
     5    33    34   ar
     6    34    35   ar
     7    35    36   ar
     8    36    37   ar
     9    37    38   ar
    10    38    31    1
    11    31    24    1
    12    24    25   ar
    13    25    26   ar
    14    26    22    1
    15    22     1    1
    16     1     2   ar
    17     2     3   ar
    18     3     4   ar
    19     4     5   ar
    20     5     6   ar
    21     6    44    1
    22    44    45    1
    23     5     7    1
    24     7     8    1
    25     8     9    1
    26     9    10    1
    27    10    12    1
    28    12    13    1
    29    13    14    1
    30    14    15    1
    31    15    18    1
    32    18    19    1
    33    19    20    1
    34    15    16    1
    35    16    17    1
    36    10    11    1
    37    26    27   ar
    38    27    28   ar
    39    28    29   ar
    40    29    30    1
    41    38    33   ar
    42    29    24   ar
    43     6     1   ar
    44    17    12    1
    45    11     4    1
    46    40    43    1
    47    31    32    1
    48    22    23    1
    49    20    21    1
@<TRIPOS>MOLECULE
*****
 45 49 0 0 0
SMALL
GASTEIGER

@<TRIPOS>ATOM
      1 C         143.5387  140.9073  161.3601 C.ar    1  UNL1        0.0846
      2 C         143.3145  139.5216  161.8888 C.ar    1  UNL1        0.0174
      3 C         143.1019  138.3812  160.9377 C.ar    1  UNL1       -0.0031
      4 C         143.1136  138.6267  159.4579 C.ar    1  UNL1       -0.0218
      5 C         143.3377  140.0124  158.9293 C.ar    1  UNL1        0.0091
      6 C         143.5503  141.1527  159.8803 C.ar    1  UNL1        0.1477
      7 C         143.3868  140.4725  157.5024 C.3     1  UNL1        0.0292
      8 C         143.2238  139.6603  156.2518 C.3     1  UNL1        0.0062
      9 C         142.9715  138.1877  156.1192 C.3     1  UNL1        0.0166
     10 C         142.8199  137.1634  157.2045 C.3     1  UNL1        0.0619
     11 C         142.8831  137.3587  158.6903 C.3     1  UNL1        0.0421
     12 N         142.5723  135.7579  156.7428 N.3     1  UNL1       -0.2713
     13 C         143.2715  134.6135  157.4150 C.3     1  UNL1        0.0896
     14 C         143.0238  133.2079  156.9532 C.3     1  UNL1        0.0897
     15 N         142.0772  132.9467  155.8194 N.3     1  UNL1       -0.2682
     16 C         141.3780  134.0910  155.1472 C.3     1  UNL1        0.0897
     17 C         141.6257  135.4966  155.6090 C.3     1  UNL1        0.0896
     18 C         141.8296  131.5412  155.3578 C.3     1  UNL1        0.1043
     19 C         140.6969  131.2487  154.4188 C.3     1  UNL1        0.1544
     20 O         139.4606  130.5663  154.9245 O.3     1  UNL1       -0.3805
     21 H         139.6800  129.6627  155.2006 H       1  UNL1        0.2105
     22 N         143.7512  142.0476  162.3111 N.pl3   1  UNL1       -0.2801
     23 H         144.6649  142.3328  162.5414 H       1  UNL1        0.1552
     24 C         140.0873  142.7360  163.6722 C.ar    1  UNL1        0.1472
     25 N         141.2670  142.0303  163.0719 N.ar    1  UNL1       -0.1976
     26 C         142.5715  142.7533  162.9114 C.ar    1  UNL1        0.2220
     27 N         142.6962  144.1820  163.3514 N.ar    1  UNL1       -0.2110
     28 C         141.5166  144.8876  163.9516 C.ar    1  UNL1        0.1160
     29 C         140.2121  144.1647  164.1121 C.ar    1  UNL1        0.1085
     30 CL        139.0324  144.8704  164.7124 Cl      1  UNL1       -0.0777
     31 N         138.7829  142.0131  163.8326 N.pl3   1  UNL1       -0.2970
     32 H         137.9348  142.4856  163.6692 H       1  UNL1        0.1536
     33 C         138.7045  139.4949  163.1978 C.ar    1  UNL1        0.0668
     34 C         138.6923  138.0518  163.6071 C.ar    1  UNL1        0.0058
     35 C         138.7461  137.6839  165.0603 C.ar    1  UNL1        0.0002
     36 C         138.8123  138.7589  166.1043 C.ar    1  UNL1        0.0013
     37 C         138.8245  140.2020  165.6950 C.ar    1  UNL1        0.0148
     38 C         138.7706  140.5700  164.2418 C.ar    1  UNL1        0.0537
     39 C         139.8579  140.5835  159.5599 C.3     1  UNL1        0.1109
     40 N         139.9117  140.2155  161.0131 N.am    1  UNL1       -0.2991
     41 C         138.6507  139.8628  161.7447 C.2     1  UNL1        0.2471
     42 O         137.3357  139.8780  161.0231 O.2     1  UNL1       -0.2701
     43 H         140.7747  140.2055  161.4866 H       1  UNL1        0.1498
     44 O         143.7744  142.5384  159.3516 O.3     1  UNL1       -0.4705
     45 C         142.6298  143.5044  159.2702 C.3     1  UNL1        0.2525
@<TRIPOS>BOND
     1    39    40    1
     2    40    41   am
     3    41    42    2
     4    41    33    1
     5    33    34   ar
     6    34    35   ar
     7    35    36   ar
     8    36    37   ar
     9    37    38   ar
    10    38    31    1
    11    31    24    1
    12    24    25   ar
    13    25    26   ar
    14    26    22    1
    15    22     1    1
    16     1     2   ar
    17     2     3   ar
    18     3     4   ar
    19     4     5   ar
    20     5     6   ar
    21     6    44    1
    22    44    45    1
    23     5     7    1
    24     7     8    1
    25     8     9    1
    26     9    10    1
    27    10    12    1
    28    12    13    1
    29    13    14    1
    30    14    15    1
    31    15    18    1
    32    18    19    1
    33    19    20    1
    34    15    16    1
    35    16    17    1
    36    10    11    1
    37    26    27   ar
    38    27    28   ar
    39    28    29   ar
    40    29    30    1
    41    38    33   ar
    42    29    24   ar
    43     6     1   ar
    44    17    12    1
    45    11     4    1
    46    40    43    1
    47    31    32    1
    48    22    23    1
    49    20    21    1
@<TRIPOS>MOLECULE
*****
 45 49 0 0 0
SMALL
GASTEIGER

@<TRIPOS>ATOM
      1 C         142.7717  138.9677  164.1893 C.ar    1  UNL1        0.0846
      2 C         144.0472  139.7057  163.9090 C.ar    1  UNL1        0.0174
      3 C         144.4276  140.0360  162.4961 C.ar    1  UNL1       -0.0031
      4 C         143.5326  139.6283  161.3635 C.ar    1  UNL1       -0.0218
      5 C         142.2572  138.8904  161.6438 C.ar    1  UNL1        0.0091
      6 C         141.8767  138.5600  163.0566 C.ar    1  UNL1        0.1477
      7 C         141.2296  138.3953  160.6696 C.3     1  UNL1        0.0292
      8 C         141.2238  138.5160  159.1744 C.3     1  UNL1        0.0062
      9 C         142.2440  139.1614  158.2843 C.3     1  UNL1        0.0166
     10 C         143.5221  139.8457  158.6694 C.3     1  UNL1        0.0619
     11 C         144.0956  140.0535  160.0398 C.3     1  UNL1        0.0421
     12 N         144.3341  140.3948  157.5340 N.3     1  UNL1       -0.2713
     13 C         145.1765  141.6192  157.7377 C.3     1  UNL1        0.0896
     14 C         145.9885  142.1683  156.6022 C.3     1  UNL1        0.0897
     15 N         145.9581  141.4931  155.2631 N.3     1  UNL1       -0.2682
     16 C         145.1156  140.2688  155.0594 C.3     1  UNL1        0.0897
     17 C         144.3036  139.7197  156.1949 C.3     1  UNL1        0.0896
     18 C         146.7700  142.0422  154.1277 C.3     1  UNL1        0.1043
     19 C         147.4974  143.3444  154.2869 C.3     1  UNL1        0.1544
     20 O         146.7323  144.6345  154.2973 O.3     1  UNL1       -0.3805
     21 H         146.3297  144.7787  153.4266 H       1  UNL1        0.2105
     22 N         142.3913  138.6375  165.6021 N.pl3   1  UNL1       -0.2801
     23 H         142.4820  137.7148  165.9335 H       1  UNL1        0.1552
     24 C         140.6805  141.9977  166.8401 C.ar    1  UNL1        0.1472
     25 N         141.1991  140.9222  165.9321 N.ar    1  UNL1       -0.1976
     26 C         141.8727  139.7130  166.5101 C.ar    1  UNL1        0.2220
     27 N         142.0278  139.5793  167.9961 N.ar    1  UNL1       -0.2110
     28 C         141.5092  140.6547  168.9041 C.ar    1  UNL1        0.1160
     29 C         140.8356  141.8640  168.3261 C.ar    1  UNL1        0.1085
     30 CL        140.3171  142.9395  169.2340 Cl      1  UNL1       -0.0777
     31 N         140.0070  143.2069  166.2620 N.pl3   1  UNL1       -0.2970
     32 H         139.9420  144.0344  166.7913 H       1  UNL1        0.1536
     33 C         140.2587  143.5952  163.7054 C.ar    1  UNL1        0.0668
     34 C         139.6841  143.5435  162.3208 C.ar    1  UNL1        0.0058
     35 C         138.2830  143.0517  162.1082 C.ar    1  UNL1        0.0002
     36 C         137.4566  142.6116  163.2801 C.ar    1  UNL1        0.0013
     37 C         138.0312  142.6633  164.6647 C.ar    1  UNL1        0.0148
     38 C         139.4323  143.1551  164.8774 C.ar    1  UNL1        0.0537
     39 C         144.1736  143.5986  164.3562 C.3     1  UNL1        0.1109
     40 N         142.7725  143.1068  164.1436 N.am    1  UNL1       -0.2991
     41 C         141.6597  144.0870  163.9181 C.2     1  UNL1        0.2471
     42 O         141.9479  145.5590  163.9053 O.2     1  UNL1       -0.2701
     43 H         142.5834  142.1407  164.1520 H       1  UNL1        0.1498
     44 O         140.6012  137.8221  163.3369 O.3     1  UNL1       -0.4705
     45 C         139.3753  138.5765  163.7587 C.3     1  UNL1        0.2525
@<TRIPOS>BOND
     1    39    40    1
     2    40    41   am
     3    41    42    2
     4    41    33    1
     5    33    34   ar
     6    34    35   ar
     7    35    36   ar
     8    36    37   ar
     9    37    38   ar
    10    38    31    1
    11    31    24    1
    12    24    25   ar
    13    25    26   ar
    14    26    22    1
    15    22     1    1
    16     1     2   ar
    17     2     3   ar
    18     3     4   ar
    19     4     5   ar
    20     5     6   ar
    21     6    44    1
    22    44    45    1
    23     5     7    1
    24     7     8    1
    25     8     9    1
    26     9    10    1
    27    10    12    1
    28    12    13    1
    29    13    14    1
    30    14    15    1
    31    15    18    1
    32    18    19    1
    33    19    20    1
    34    15    16    1
    35    16    17    1
    36    10    11    1
    37    26    27   ar
    38    27    28   ar
    39    28    29   ar
    40    29    30    1
    41    38    33   ar
    42    29    24   ar
    43     6     1   ar
    44    17    12    1
    45    11     4    1
    46    40    43    1
    47    31    32    1
    48    22    23    1
    49    20    21    1
@<TRIPOS>MOLECULE
*****
 45 49 0 0 0
SMALL
GASTEIGER

@<TRIPOS>ATOM
      1 C         140.5314  142.2561  158.9927 C.ar    1  UNL1        0.0846
      2 C         141.3000  143.4973  159.3371 C.ar    1  UNL1        0.0174
      3 C         141.0407  144.7717  158.5895 C.ar    1  UNL1       -0.0031
      4 C         140.0129  144.8047  157.4974 C.ar    1  UNL1       -0.0218
      5 C         139.2445  143.5635  157.1531 C.ar    1  UNL1        0.0091
      6 C         139.5036  142.2892  157.9006 C.ar    1  UNL1        0.1477
      7 C         138.1843  143.3797  156.1079 C.3     1  UNL1        0.0292
      8 C         137.6308  144.3919  155.1490 C.3     1  UNL1        0.0062
      9 C         138.0009  145.8376  154.9985 C.3     1  UNL1        0.0166
     10 C         139.0157  146.6285  155.7697 C.3     1  UNL1        0.0619
     11 C         139.9112  146.1688  156.8818 C.3     1  UNL1        0.0421
     12 N         139.1533  148.0695  155.3768 N.3     1  UNL1       -0.2713
     13 C         138.5032  149.1380  156.2049 C.3     1  UNL1        0.0896
     14 C         138.6408  150.5792  155.8120 C.3     1  UNL1        0.0897
     15 N         139.4284  150.9517  154.5910 N.3     1  UNL1       -0.2682
     16 C         140.0784  149.8832  153.7628 C.3     1  UNL1        0.0897
     17 C         139.9408  148.4421  154.1558 C.3     1  UNL1        0.0896
     18 C         139.5660  152.3928  154.1981 C.3     1  UNL1        0.1043
     19 C         138.3733  153.1497  153.6933 C.3     1  UNL1        0.1544
     20 O         137.4535  153.8324  154.6617 O.3     1  UNL1       -0.3805
     21 H         137.0048  153.1665  155.2058 H       1  UNL1        0.2105
     22 N         140.7907  140.9818  159.7403 N.pl3   1  UNL1       -0.2801
     23 H         141.3765  140.2930  159.3508 H       1  UNL1        0.1552
     24 C         139.8912  141.4106  163.5818 C.ar    1  UNL1        0.1472
     25 N         140.5243  141.6354  162.2407 N.ar    1  UNL1       -0.1976
     26 C         140.1575  140.7570  161.0814 C.ar    1  UNL1        0.2220
     27 N         139.1575  139.6538  161.2633 N.ar    1  UNL1       -0.2110
     28 C         138.5244  139.4290  162.6043 C.ar    1  UNL1        0.1160
     29 C         138.8912  140.3074  163.7636 C.ar    1  UNL1        0.1085
     30 CL        138.2580  140.0826  165.1047 Cl      1  UNL1       -0.0777
     31 N         140.2580  142.2891  164.7410 N.pl3   1  UNL1       -0.2970
     32 H         139.6183  142.4258  165.4768 H       1  UNL1        0.1536
     33 C         141.7746  144.3217  164.1766 C.ar    1  UNL1        0.0668
     34 C         143.1161  144.9918  164.2148 C.ar    1  UNL1        0.0058
     35 C         144.2824  144.2993  164.8553 C.ar    1  UNL1        0.0002
     36 C         144.1073  142.9369  165.4578 C.ar    1  UNL1        0.0013
     37 C         142.7658  142.2668  165.4197 C.ar    1  UNL1        0.0148
     38 C         141.5995  142.9591  164.7791 C.ar    1  UNL1        0.0537
     39 C         139.6194  146.4209  161.5885 C.3     1  UNL1        0.1109
     40 N         140.7857  145.7284  162.2291 N.am    1  UNL1       -0.2991
     41 C         140.6084  145.0140  163.5361 C.2     1  UNL1        0.2471
     42 O         139.2647  144.9920  164.2025 O.2     1  UNL1       -0.2701
     43 H         141.6676  145.7429  161.7917 H       1  UNL1        0.1498
     44 O         138.7351  141.0479  157.5561 O.3     1  UNL1       -0.4705
     45 C         137.5093  140.6831  158.3398 C.3     1  UNL1        0.2525
@<TRIPOS>BOND
     1    39    40    1
     2    40    41   am
     3    41    42    2
     4    41    33    1
     5    33    34   ar
     6    34    35   ar
     7    35    36   ar
     8    36    37   ar
     9    37    38   ar
    10    38    31    1
    11    31    24    1
    12    24    25   ar
    13    25    26   ar
    14    26    22    1
    15    22     1    1
    16     1     2   ar
    17     2     3   ar
    18     3     4   ar
    19     4     5   ar
    20     5     6   ar
    21     6    44    1
    22    44    45    1
    23     5     7    1
    24     7     8    1
    25     8     9    1
    26     9    10    1
    27    10    12    1
    28    12    13    1
    29    13    14    1
    30    14    15    1
    31    15    18    1
    32    18    19    1
    33    19    20    1
    34    15    16    1
    35    16    17    1
    36    10    11    1
    37    26    27   ar
    38    27    28   ar
    39    28    29   ar
    40    29    30    1
    41    38    33   ar
    42    29    24   ar
    43     6     1   ar
    44    17    12    1
    45    11     4    1
    46    40    43    1
    47    31    32    1
    48    22    23    1
    49    20    21    1
@<TRIPOS>MOLECULE
*****
 45 49 0 0 0
SMALL
GASTEIGER

@<TRIPOS>ATOM
      1 C         138.2530  140.1503  160.2155 C.ar    1  UNL1        0.0846
      2 C         137.8606  141.1580  161.2551 C.ar    1  UNL1        0.0174
      3 C         138.4181  141.0585  162.6441 C.ar    1  UNL1       -0.0031
      4 C         139.3681  139.9515  162.9934 C.ar    1  UNL1       -0.0218
      5 C         139.7605  138.9440  161.9539 C.ar    1  UNL1        0.0091
      6 C         139.2030  139.0433  160.5649 C.ar    1  UNL1        0.1477
      7 C         140.6857  137.7711  162.0903 C.3     1  UNL1        0.0292
      8 C         141.4469  137.3162  163.3002 C.3     1  UNL1        0.0062
      9 C         141.4710  137.9218  164.6722 C.3     1  UNL1        0.0166
     10 C         140.7398  139.1319  165.1734 C.3     1  UNL1        0.0619
     11 C         139.8039  140.0352  164.4263 C.3     1  UNL1        0.0421
     12 N         140.9757  139.4854  166.6119 N.3     1  UNL1       -0.2713
     13 C         139.8248  139.8969  167.4816 C.3     1  UNL1        0.0896
     14 C         140.0608  140.2504  168.9202 C.3     1  UNL1        0.0897
     15 N         141.4475  140.1924  169.4891 N.3     1  UNL1       -0.2682
     16 C         142.5983  139.7808  168.6194 C.3     1  UNL1        0.0897
     17 C         142.3624  139.4273  167.1808 C.3     1  UNL1        0.0896
     18 C         141.6834  140.5458  170.9276 C.3     1  UNL1        0.1043
     19 C         141.6048  141.9767  171.3709 C.3     1  UNL1        0.1544
     20 O         140.3393  142.5052  171.9785 O.3     1  UNL1       -0.3805
     21 H         139.6349  142.5030  171.3115 H       1  UNL1        0.2105
     22 N         137.6954  140.2498  158.8266 N.pl3   1  UNL1       -0.2801
     23 H         137.1559  139.5130  158.4587 H       1  UNL1        0.1552
     24 C         139.3908  143.5805  157.4914 C.ar    1  UNL1        0.1472
     25 N         139.1263  142.3583  158.3199 N.ar    1  UNL1       -0.1976
     26 C         137.9598  141.4720  157.9980 C.ar    1  UNL1        0.2220
     27 N         137.0577  141.8078  156.8476 N.ar    1  UNL1       -0.2110
     28 C         137.3221  143.0299  156.0191 C.ar    1  UNL1        0.1160
     29 C         138.4886  143.9163  156.3410 C.ar    1  UNL1        0.1085
     30 CL        138.7530  145.1384  155.5124 Cl      1  UNL1       -0.0777
     31 N         140.5573  144.4668  157.8133 N.pl3   1  UNL1       -0.2970
     32 H         140.5753  145.3951  157.4860 H       1  UNL1        0.1536
     33 C         141.6668  144.0664  160.1283 C.ar    1  UNL1        0.0668
     34 C         142.8060  143.5382  160.9489 C.ar    1  UNL1        0.0058
     35 C         143.9747  142.8822  160.2752 C.ar    1  UNL1        0.0002
     36 C         144.0043  142.7544  158.7810 C.ar    1  UNL1        0.0013
     37 C         142.8652  143.2826  157.9604 C.ar    1  UNL1        0.0148
     38 C         141.6964  143.9386  158.6340 C.ar    1  UNL1        0.0537
     39 C         138.8548  144.8795  162.8081 C.3     1  UNL1        0.1109
     40 N         140.0235  144.2235  162.1344 N.am    1  UNL1       -0.2991
     41 C         140.4982  144.7224  160.8019 C.2     1  UNL1        0.2471
     42 O         139.8040  145.8774  160.1429 O.2     1  UNL1       -0.2701
     43 H         140.4791  143.4654  162.5669 H       1  UNL1        0.1498
     44 O         139.5954  138.0357  159.5253 O.3     1  UNL1       -0.4705
     45 C         140.5958  138.3992  158.4685 C.3     1  UNL1        0.2525
@<TRIPOS>BOND
     1    39    40    1
     2    40    41   am
     3    41    42    2
     4    41    33    1
     5    33    34   ar
     6    34    35   ar
     7    35    36   ar
     8    36    37   ar
     9    37    38   ar
    10    38    31    1
    11    31    24    1
    12    24    25   ar
    13    25    26   ar
    14    26    22    1
    15    22     1    1
    16     1     2   ar
    17     2     3   ar
    18     3     4   ar
    19     4     5   ar
    20     5     6   ar
    21     6    44    1
    22    44    45    1
    23     5     7    1
    24     7     8    1
    25     8     9    1
    26     9    10    1
    27    10    12    1
    28    12    13    1
    29    13    14    1
    30    14    15    1
    31    15    18    1
    32    18    19    1
    33    19    20    1
    34    15    16    1
    35    16    17    1
    36    10    11    1
    37    26    27   ar
    38    27    28   ar
    39    28    29   ar
    40    29    30    1
    41    38    33   ar
    42    29    24   ar
    43     6     1   ar
    44    17    12    1
    45    11     4    1
    46    40    43    1
    47    31    32    1
    48    22    23    1
    49    20    21    1
@<TRIPOS>MOLECULE
*****
 45 49 0 0 0
SMALL
GASTEIGER

@<TRIPOS>ATOM
      1 C         141.5409  142.6666  158.5096 C.ar    1  UNL1        0.0846
      2 C         142.2823  143.9555  158.7076 C.ar    1  UNL1        0.0174
      3 C         141.8076  145.2058  158.0283 C.ar    1  UNL1       -0.0031
      4 C         140.5916  145.1672  157.1508 C.ar    1  UNL1       -0.0218
      5 C         139.8503  143.8784  156.9528 C.ar    1  UNL1        0.0091
      6 C         140.3249  142.6281  157.6321 C.ar    1  UNL1        0.1477
      7 C         138.6249  143.6217  156.1267 C.3     1  UNL1        0.0292
      8 C         137.8382  144.5906  155.2944 C.3     1  UNL1        0.0062
      9 C         138.0826  146.0552  155.0830 C.3     1  UNL1        0.0166
     10 C         139.1741  146.9130  155.6513 C.3     1  UNL1        0.0619
     11 C         140.2907  146.5177  156.5716 C.3     1  UNL1        0.0421
     12 N         139.1451  148.3568  155.2458 N.3     1  UNL1       -0.2713
     13 C         138.5490  149.3820  156.1644 C.3     1  UNL1        0.0896
     14 C         138.5201  150.8259  155.7588 C.3     1  UNL1        0.0897
     15 N         139.0871  151.2445  154.4347 N.3     1  UNL1       -0.2682
     16 C         139.6832  150.2193  153.5161 C.3     1  UNL1        0.0897
     17 C         139.7121  148.7754  153.9217 C.3     1  UNL1        0.0896
     18 C         139.0581  152.6883  154.0292 C.3     1  UNL1        0.1043
     19 C         138.3765  153.0965  152.7568 C.3     1  UNL1        0.1544
     20 O         136.9644  153.6011  152.7910 O.3     1  UNL1       -0.3805
     21 H         136.3720  152.8856  153.0703 H       1  UNL1        0.2105
     22 N         142.0156  141.4164  159.1889 N.pl3   1  UNL1       -0.2801
     23 H         141.9202  140.5455  158.7398 H       1  UNL1        0.1552
     24 C         142.3867  141.5376  163.1384 C.ar    1  UNL1        0.1472
     25 N         141.7666  141.4609  161.7747 N.ar    1  UNL1       -0.1976
     26 C         142.6358  141.4931  160.5526 C.ar    1  UNL1        0.2220
     27 N         144.1252  141.6020  160.6942 N.ar    1  UNL1       -0.2110
     28 C         144.7453  141.6788  162.0578 C.ar    1  UNL1        0.1160
     29 C         143.8761  141.6465  163.2799 C.ar    1  UNL1        0.1085
     30 CL        144.4962  141.7232  164.6436 Cl      1  UNL1       -0.0777
     31 N         141.5175  141.5053  164.3604 N.pl3   1  UNL1       -0.2970
     32 H         141.7540  140.9221  165.1174 H       1  UNL1        0.1536
     33 C         138.9467  141.7763  164.0994 C.ar    1  UNL1        0.0668
     34 C         137.7172  142.6327  164.1679 C.ar    1  UNL1        0.0058
     35 C         137.8288  144.0747  164.5659 C.ar    1  UNL1        0.0002
     36 C         139.1699  144.6602  164.8954 C.ar    1  UNL1        0.0013
     37 C         140.3994  143.8038  164.8269 C.ar    1  UNL1        0.0148
     38 C         140.2879  142.3618  164.4289 C.ar    1  UNL1        0.0537
     39 C         138.0268  138.5179  162.0290 C.3     1  UNL1        0.1109
     40 N         138.1383  139.9598  162.4271 N.am    1  UNL1       -0.2991
     41 C         138.8352  140.3344  163.7014 C.2     1  UNL1        0.2471
     42 O         139.4205  139.2670  164.5778 O.2     1  UNL1       -0.2701
     43 H         137.7542  140.6604  161.8518 H       1  UNL1        0.1498
     44 O         139.5835  141.3392  157.4341 O.3     1  UNL1       -0.4705
     45 C         140.1531  140.2757  156.5428 C.3     1  UNL1        0.2525
@<TRIPOS>BOND
     1    39    40    1
     2    40    41   am
     3    41    42    2
     4    41    33    1
     5    33    34   ar
     6    34    35   ar
     7    35    36   ar
     8    36    37   ar
     9    37    38   ar
    10    38    31    1
    11    31    24    1
    12    24    25   ar
    13    25    26   ar
    14    26    22    1
    15    22     1    1
    16     1     2   ar
    17     2     3   ar
    18     3     4   ar
    19     4     5   ar
    20     5     6   ar
    21     6    44    1
    22    44    45    1
    23     5     7    1
    24     7     8    1
    25     8     9    1
    26     9    10    1
    27    10    12    1
    28    12    13    1
    29    13    14    1
    30    14    15    1
    31    15    18    1
    32    18    19    1
    33    19    20    1
    34    15    16    1
    35    16    17    1
    36    10    11    1
    37    26    27   ar
    38    27    28   ar
    39    28    29   ar
    40    29    30    1
    41    38    33   ar
    42    29    24   ar
    43     6     1   ar
    44    17    12    1
    45    11     4    1
    46    40    43    1
    47    31    32    1
    48    22    23    1
    49    20    21    1
