@<TRIPOS>MOLECULE
*****
 26 28 0 0 0
SMALL
GASTEIGER

@<TRIPOS>ATOM
      1 C         143.1076  140.3773  162.9875 C.ar    1  UNL1        0.0884
      2 C         142.5001  141.5013  162.2018 C.ar    1  UNL1        0.0509
      3 C         141.5879  142.4816  162.8777 C.ar    1  UNL1        0.1360
      4 N         141.2833  142.3379  164.3394 N.ar    1  UNL1       -0.1985
      5 C         141.8909  141.2139  165.1251 C.ar    1  UNL1        0.2239
      6 N         142.8031  140.2336  164.4492 N.ar    1  UNL1       -0.2160
      7 N         140.9804  143.6057  162.0919 N.pl3   1  UNL1       -0.2880
      8 C         140.2064  144.6805  162.7961 C.3     1  UNL1        0.1242
      9 C         139.5989  145.8045  162.0104 C.3     1  UNL1        0.1636
     10 O         139.7653  145.8538  160.5204 O.3     1  UNL1       -0.3501
     11 C         140.5392  144.7790  159.8162 C.3     1  UNL1        0.1636
     12 C         141.1468  143.6549  160.6020 C.3     1  UNL1        0.1242
     13 N         141.5863  141.0702  166.5869 N.am    1  UNL1       -0.2478
     14 C         140.3735  140.3061  167.0287 C.2     1  UNL1        0.2891
     15 O         139.4653  139.6857  166.0088 O.2     1  UNL1       -0.2663
     16 H         142.1824  141.4774  167.2563 H       1  UNL1        0.1581
     17 C         140.0689  140.1624  168.4904 C.ar    1  UNL1        0.2303
     18 C         141.0268  140.4064  169.6187 C.ar    1  UNL1        0.0690
     19 C         140.3029  140.1442  170.9061 C.ar    1  UNL1        0.1440
     20 N         138.8977  139.7382  170.5734 N.ar    1  UNL1       -0.0751
     21 O         138.7531  139.7495  169.0804 O.2     1  UNL1       -0.3487
     22 C         144.0198  139.3969  162.3115 C.3     1  UNL1        0.1964
     23 C         142.9349  137.5258  160.2326 C.3     1  UNL1        0.1765
     24 S         143.4774  138.4614  161.2721 S.O2    1  UNL1       -0.0025
     25 O         142.6260  137.7978  162.3136 O.2     1  UNL1       -0.1726
     26 O         144.3288  139.1249  160.2306 O.2     1  UNL1       -0.1726
@<TRIPOS>BOND
     1    23    24    1
     2    24    25    2
     3    24    26    2
     4    24    22    1
     5    22     1    1
     6     1     2   ar
     7     2     3   ar
     8     3     7    1
     9     7     8    1
    10     8     9    1
    11     9    10    1
    12    10    11    1
    13    11    12    1
    14     3     4   ar
    15     4     5   ar
    16     5    13    1
    17    13    14   am
    18    14    15    2
    19    14    17    1
    20    17    18   ar
    21    18    19   ar
    22    19    20   ar
    23    20    21   ar
    24     5     6   ar
    25     6     1   ar
    26    12     7    1
    27    21    17   ar
    28    13    16    1
@<TRIPOS>MOLECULE
*****
 26 28 0 0 0
SMALL
GASTEIGER

@<TRIPOS>ATOM
      1 C         140.5368  144.0747  163.2003 C.ar    1  UNL1        0.0884
      2 C         140.1986  142.8205  162.4504 C.ar    1  UNL1        0.0509
      3 C         139.8531  141.5682  163.2003 C.ar    1  UNL1        0.1360
      4 N         139.8459  141.5701  164.7003 N.ar    1  UNL1       -0.1985
      5 C         140.1841  142.8243  165.4503 C.ar    1  UNL1        0.2239
      6 N         140.5296  144.0766  164.7003 N.ar    1  UNL1       -0.2160
      7 N         139.5148  140.3140  162.4503 N.pl3   1  UNL1       -0.2880
      8 C         138.1356  139.7320  162.5455 C.3     1  UNL1        0.1242
      9 C         137.7973  138.4779  161.7955 C.3     1  UNL1        0.1636
     10 O         138.8382  137.8055  160.9502 O.3     1  UNL1       -0.3501
     11 C         140.2174  138.3875  160.8549 C.3     1  UNL1        0.1636
     12 C         140.5557  139.6417  161.6050 C.3     1  UNL1        0.1242
     13 N         140.1769  142.8263  166.9503 N.am    1  UNL1       -0.2478
     14 C         141.2048  142.0378  167.7063 C.2     1  UNL1        0.2891
     15 O         142.2400  141.2472  166.9623 O.2     1  UNL1       -0.2663
     16 H         139.4975  143.3452  167.4386 H       1  UNL1        0.1581
     17 C         141.1976  142.0397  169.2063 C.ar    1  UNL1        0.2303
     18 C         142.3479  141.6669  170.0939 C.ar    1  UNL1        0.0690
     19 C         141.9001  141.8116  171.5183 C.ar    1  UNL1        0.1440
     20 N         140.4731  142.2739  171.5108 N.ar    1  UNL1       -0.0751
     21 O         140.0390  142.4148  170.0819 O.2     1  UNL1       -0.3487
     22 C         140.8823  145.3269  162.4504 C.3     1  UNL1        0.1964
     23 C         140.2979  145.5268  159.5146 C.3     1  UNL1        0.1765
     24 S         140.5901  145.4269  160.9825 S.O2    1  UNL1       -0.0025
     25 O         141.9560  144.8892  160.6740 O.2     1  UNL1       -0.1726
     26 O         139.2242  145.9645  161.2910 O.2     1  UNL1       -0.1726
@<TRIPOS>BOND
     1    23    24    1
     2    24    25    2
     3    24    26    2
     4    24    22    1
     5    22     1    1
     6     1     2   ar
     7     2     3   ar
     8     3     7    1
     9     7     8    1
    10     8     9    1
    11     9    10    1
    12    10    11    1
    13    11    12    1
    14     3     4   ar
    15     4     5   ar
    16     5    13    1
    17    13    14   am
    18    14    15    2
    19    14    17    1
    20    17    18   ar
    21    18    19   ar
    22    19    20   ar
    23    20    21   ar
    24     5     6   ar
    25     6     1   ar
    26    12     7    1
    27    21    17   ar
    28    13    16    1
@<TRIPOS>MOLECULE
*****
 26 28 0 0 0
SMALL
GASTEIGER

@<TRIPOS>ATOM
      1 C         140.6222  141.9568  169.4196 C.ar    1  UNL1        0.0884
      2 C         140.4074  141.6118  167.9757 C.ar    1  UNL1        0.0509
      3 C         139.4907  140.4848  167.6022 C.ar    1  UNL1        0.1360
      4 N         138.7888  139.7028  168.6725 N.ar    1  UNL1       -0.1985
      5 C         139.0036  140.0478  170.1164 C.ar    1  UNL1        0.2239
      6 N         139.9203  141.1748  170.4899 N.ar    1  UNL1       -0.2160
      7 N         139.2760  140.1399  166.1582 N.pl3   1  UNL1       -0.2880
      8 C         138.9858  138.7229  165.7608 C.3     1  UNL1        0.1242
      9 C         138.7710  138.3779  164.3169 C.3     1  UNL1        0.1636
     10 O         138.8465  139.4499  163.2704 O.3     1  UNL1       -0.3501
     11 C         139.1367  140.8669  163.6678 C.3     1  UNL1        0.1636
     12 C         139.3514  141.2119  165.1118 C.3     1  UNL1        0.1242
     13 N         138.3016  139.2657  171.1868 N.am    1  UNL1       -0.2478
     14 C         137.1069  138.4270  170.8416 C.2     1  UNL1        0.2891
     15 O         136.6141  138.3703  169.4260 O.2     1  UNL1       -0.2663
     16 H         138.6251  139.3029  172.1159 H       1  UNL1        0.1581
     17 C         136.4050  137.6450  171.9121 C.ar    1  UNL1        0.2303
     18 C         135.1598  138.0631  172.6364 C.ar    1  UNL1        0.0690
     19 C         134.8102  136.9841  173.6181 C.ar    1  UNL1        0.1440
     20 N         135.8394  135.8991  173.5004 N.ar    1  UNL1       -0.0751
     21 O         136.8250  136.3076  172.4460 O.2     1  UNL1       -0.3487
     22 C         141.5389  143.0838  169.7931 C.3     1  UNL1        0.1964
     23 C         144.4699  142.5700  170.1740 C.3     1  UNL1        0.1765
     24 S         143.0043  142.8269  169.9836 S.O2    1  UNL1       -0.0025
     25 O         142.9451  141.7312  168.9610 O.2     1  UNL1       -0.1726
     26 O         143.0635  143.9227  171.0061 O.2     1  UNL1       -0.1726
@<TRIPOS>BOND
     1    23    24    1
     2    24    25    2
     3    24    26    2
     4    24    22    1
     5    22     1    1
     6     1     2   ar
     7     2     3   ar
     8     3     7    1
     9     7     8    1
    10     8     9    1
    11     9    10    1
    12    10    11    1
    13    11    12    1
    14     3     4   ar
    15     4     5   ar
    16     5    13    1
    17    13    14   am
    18    14    15    2
    19    14    17    1
    20    17    18   ar
    21    18    19   ar
    22    19    20   ar
    23    20    21   ar
    24     5     6   ar
    25     6     1   ar
    26    12     7    1
    27    21    17   ar
    28    13    16    1
@<TRIPOS>MOLECULE
*****
 26 28 0 0 0
SMALL
GASTEIGER

@<TRIPOS>ATOM
      1 C         139.8486  143.5769  164.7609 C.ar    1  UNL1        0.0884
      2 C         139.8529  143.3243  166.2395 C.ar    1  UNL1        0.0509
      3 C         140.2864  141.9904  166.7713 C.ar    1  UNL1        0.1360
      4 N         140.7154  140.9090  165.8245 N.ar    1  UNL1       -0.1985
      5 C         140.7111  141.1615  164.3459 C.ar    1  UNL1        0.2239
      6 N         140.2777  142.4955  163.8142 N.ar    1  UNL1       -0.2160
      7 N         140.2907  141.7379  168.2499 N.pl3   1  UNL1       -0.2880
      8 C         140.3237  142.8919  169.2077 C.3     1  UNL1        0.1242
      9 C         140.3281  142.6394  170.6863 C.3     1  UNL1        0.1636
     10 O         140.2993  141.2330  171.2071 O.3     1  UNL1       -0.3501
     11 C         140.2663  140.0791  170.2493 C.3     1  UNL1        0.1636
     12 C         140.2620  140.3316  168.7707 C.3     1  UNL1        0.1242
     13 N         141.1402  140.0801  163.3991 N.am    1  UNL1       -0.2478
     14 C         142.3926  140.2449  162.5903 C.2     1  UNL1        0.2891
     15 O         143.2161  141.4910  162.7284 O.2     1  UNL1       -0.2663
     16 H         140.5998  139.2622  163.3085 H       1  UNL1        0.1581
     17 C         142.8217  139.1635  161.6435 C.ar    1  UNL1        0.2303
     18 C         142.2248  138.8834  160.2961 C.ar    1  UNL1        0.0690
     19 C         142.9572  137.7191  159.6976 C.ar    1  UNL1        0.1440
     20 N         144.0067  137.2797  160.6752 N.ar    1  UNL1       -0.0751
     21 O         143.9230  138.1723  161.8777 O.2     1  UNL1       -0.3487
     22 C         139.4152  144.9108  164.2292 C.3     1  UNL1        0.1964
     23 C         140.0012  145.6530  161.3821 C.3     1  UNL1        0.1765
     24 S         139.7082  145.2819  162.8057 S.O2    1  UNL1       -0.0025
     25 O         141.1394  145.5456  163.1690 O.2     1  UNL1       -0.1726
     26 O         138.2770  145.0182  162.4423 O.2     1  UNL1       -0.1726
@<TRIPOS>BOND
     1    23    24    1
     2    24    25    2
     3    24    26    2
     4    24    22    1
     5    22     1    1
     6     1     2   ar
     7     2     3   ar
     8     3     7    1
     9     7     8    1
    10     8     9    1
    11     9    10    1
    12    10    11    1
    13    11    12    1
    14     3     4   ar
    15     4     5   ar
    16     5    13    1
    17    13    14   am
    18    14    15    2
    19    14    17    1
    20    17    18   ar
    21    18    19   ar
    22    19    20   ar
    23    20    21   ar
    24     5     6   ar
    25     6     1   ar
    26    12     7    1
    27    21    17   ar
    28    13    16    1
@<TRIPOS>MOLECULE
*****
 26 28 0 0 0
SMALL
GASTEIGER

@<TRIPOS>ATOM
      1 C         139.1047  142.1272  162.7962 C.ar    1  UNL1        0.0884
      2 C         139.9965  141.3260  161.8948 C.ar    1  UNL1        0.0509
      3 C         140.6903  140.1039  162.4195 C.ar    1  UNL1        0.1360
      4 N         140.4923  139.6831  163.8455 N.ar    1  UNL1       -0.1985
      5 C         139.6004  140.4843  164.7469 C.ar    1  UNL1        0.2239
      6 N         138.9066  141.7064  164.2223 N.ar    1  UNL1       -0.2160
      7 N         141.5823  139.3027  161.5180 N.pl3   1  UNL1       -0.2880
      8 C         142.8126  138.6464  162.0707 C.3     1  UNL1        0.1242
      9 C         143.7045  137.8452  161.1693 C.3     1  UNL1        0.1636
     10 O         143.3661  137.7003  159.7151 O.3     1  UNL1       -0.3501
     11 C         142.1357  138.3566  159.1624 C.3     1  UNL1        0.1636
     12 C         141.2438  139.1579  160.0639 C.3     1  UNL1        0.1242
     13 N         139.4023  140.0635  166.1730 N.am    1  UNL1       -0.2478
     14 C         140.0806  140.8171  167.2785 C.2     1  UNL1        0.2891
     15 O         140.9569  141.9915  166.9579 O.2     1  UNL1       -0.2663
     16 H         138.8271  139.2927  166.3835 H       1  UNL1        0.1581
     17 C         139.8825  140.3963  168.7046 C.ar    1  UNL1        0.2303
     18 C         140.9282  140.4059  169.7800 C.ar    1  UNL1        0.0690
     19 C         140.2959  139.9076  171.0458 C.ar    1  UNL1        0.1440
     20 N         138.8595  139.5900  170.7525 N.ar    1  UNL1       -0.0751
     21 O         138.6040  139.8920  169.3056 O.2     1  UNL1       -0.3487
     22 C         138.4108  143.3492  162.2716 C.3     1  UNL1        0.1964
     23 C         139.9428  145.9022  161.9034 C.3     1  UNL1        0.1765
     24 S         139.1768  144.6257  162.0875 S.O2    1  UNL1       -0.0025
     25 O         139.2239  144.3841  160.6079 O.2     1  UNL1       -0.1726
     26 O         139.1297  144.8673  163.5672 O.2     1  UNL1       -0.1726
@<TRIPOS>BOND
     1    23    24    1
     2    24    25    2
     3    24    26    2
     4    24    22    1
     5    22     1    1
     6     1     2   ar
     7     2     3   ar
     8     3     7    1
     9     7     8    1
    10     8     9    1
    11     9    10    1
    12    10    11    1
    13    11    12    1
    14     3     4   ar
    15     4     5   ar
    16     5    13    1
    17    13    14   am
    18    14    15    2
    19    14    17    1
    20    17    18   ar
    21    18    19   ar
    22    19    20   ar
    23    20    21   ar
    24     5     6   ar
    25     6     1   ar
    26    12     7    1
    27    21    17   ar
    28    13    16    1
@<TRIPOS>MOLECULE
*****
 26 28 0 0 0
SMALL
GASTEIGER

@<TRIPOS>ATOM
      1 C         143.5155  140.8012  162.9462 C.ar    1  UNL1        0.0884
      2 C         142.7535  141.7834  162.1070 C.ar    1  UNL1        0.0509
      3 C         141.9977  142.9017  162.7615 C.ar    1  UNL1        0.1360
      4 N         142.0041  143.0377  164.2553 N.ar    1  UNL1       -0.1985
      5 C         142.7661  142.0555  165.0945 C.ar    1  UNL1        0.2239
      6 N         143.5219  140.9372  164.4400 N.ar    1  UNL1       -0.2160
      7 N         141.2357  143.8840  161.9221 N.pl3   1  UNL1       -0.2880
      8 C         141.0685  143.6426  160.4511 C.3     1  UNL1        0.1242
      9 C         140.3064  144.6248  159.6118 C.3     1  UNL1        0.1636
     10 O         139.7115  145.8484  160.2434 O.3     1  UNL1       -0.3501
     11 C         139.8787  146.0898  161.7144 C.3     1  UNL1        0.1636
     12 C         140.6408  145.1075  162.5538 C.3     1  UNL1        0.1242
     13 N         142.7725  142.1915  166.5884 N.am    1  UNL1       -0.2478
     14 C         141.5123  141.9593  167.3680 C.2     1  UNL1        0.2891
     15 O         140.2456  141.5912  166.6538 O.2     1  UNL1       -0.2663
     16 H         143.6039  142.4331  167.0571 H       1  UNL1        0.1581
     17 C         141.5186  142.0953  168.8619 C.ar    1  UNL1        0.2303
     18 C         140.5711  141.4251  169.8121 C.ar    1  UNL1        0.0690
     19 C         140.9405  141.8410  171.2053 C.ar    1  UNL1        0.1440
     20 N         142.1163  142.7681  171.1159 N.ar    1  UNL1       -0.0751
     21 O         142.4736  142.9253  169.6676 O.2     1  UNL1       -0.3487
     22 C         144.2712  139.6829  162.2917 C.3     1  UNL1        0.1964
     23 C         142.8153  137.6740  160.6052 C.3     1  UNL1        0.1765
     24 S         143.5433  138.6785  161.4485 S.O2    1  UNL1       -0.0025
     25 O         144.2778  139.1652  160.2346 O.2     1  UNL1       -0.1726
     26 O         142.8088  138.1918  162.6624 O.2     1  UNL1       -0.1726
@<TRIPOS>BOND
     1    23    24    1
     2    24    25    2
     3    24    26    2
     4    24    22    1
     5    22     1    1
     6     1     2   ar
     7     2     3   ar
     8     3     7    1
     9     7     8    1
    10     8     9    1
    11     9    10    1
    12    10    11    1
    13    11    12    1
    14     3     4   ar
    15     4     5   ar
    16     5    13    1
    17    13    14   am
    18    14    15    2
    19    14    17    1
    20    17    18   ar
    21    18    19   ar
    22    19    20   ar
    23    20    21   ar
    24     5     6   ar
    25     6     1   ar
    26    12     7    1
    27    21    17   ar
    28    13    16    1
@<TRIPOS>MOLECULE
*****
 26 28 0 0 0
SMALL
GASTEIGER

@<TRIPOS>ATOM
      1 C         140.3241  145.0044  161.9481 C.ar    1  UNL1        0.0884
      2 C         141.3351  144.0063  162.4293 C.ar    1  UNL1        0.0509
      3 C         142.4577  143.5823  161.5293 C.ar    1  UNL1        0.1360
      4 N         142.5694  144.1565  160.1481 N.ar    1  UNL1       -0.1985
      5 C         141.5584  145.1547  159.6669 C.ar    1  UNL1        0.2239
      6 N         140.4358  145.5786  160.5669 N.ar    1  UNL1       -0.2160
      7 N         143.4687  142.5841  162.0106 N.pl3   1  UNL1       -0.2880
      8 C         144.5656  143.0154  162.9384 C.3     1  UNL1        0.1242
      9 C         145.5766  142.0173  163.4197 C.3     1  UNL1        0.1636
     10 O         145.4907  140.5878  162.9731 O.3     1  UNL1       -0.3501
     11 C         144.3938  140.1565  162.0453 C.3     1  UNL1        0.1636
     12 C         143.3828  141.1547  161.5641 C.3     1  UNL1        0.1242
     13 N         141.6700  145.7289  158.2856 N.am    1  UNL1       -0.2478
     14 C         140.7207  145.2882  157.2112 C.2     1  UNL1        0.2891
     15 O         139.6597  144.2732  157.5179 O.2     1  UNL1       -0.2663
     16 H         142.3664  146.3951  158.0842 H       1  UNL1        0.1581
     17 C         140.8323  145.8625  155.8299 C.ar    1  UNL1        0.2303
     18 C         140.0981  147.0639  155.3126 C.ar    1  UNL1        0.0690
     19 C         140.5097  147.2801  153.8864 C.ar    1  UNL1        0.1440
     20 N         141.4984  146.2123  153.5224 N.ar    1  UNL1       -0.0751
     21 O         141.6977  145.3362  154.7235 O.2     1  UNL1       -0.3487
     22 C         139.2015  145.4283  162.8480 C.3     1  UNL1        0.1964
     23 C         137.6156  143.3657  164.3415 C.3     1  UNL1        0.1765
     24 S         138.4086  144.3970  163.5948 S.O2    1  UNL1       -0.0025
     25 O         137.7939  143.9367  162.3063 O.2     1  UNL1       -0.1726
     26 O         139.0233  144.8573  164.8832 O.2     1  UNL1       -0.1726
@<TRIPOS>BOND
     1    23    24    1
     2    24    25    2
     3    24    26    2
     4    24    22    1
     5    22     1    1
     6     1     2   ar
     7     2     3   ar
     8     3     7    1
     9     7     8    1
    10     8     9    1
    11     9    10    1
    12    10    11    1
    13    11    12    1
    14     3     4   ar
    15     4     5   ar
    16     5    13    1
    17    13    14   am
    18    14    15    2
    19    14    17    1
    20    17    18   ar
    21    18    19   ar
    22    19    20   ar
    23    20    21   ar
    24     5     6   ar
    25     6     1   ar
    26    12     7    1
    27    21    17   ar
    28    13    16    1
@<TRIPOS>MOLECULE
*****
 26 28 0 0 0
SMALL
GASTEIGER

@<TRIPOS>ATOM
      1 C         143.1039  140.1546  161.7186 C.ar    1  UNL1        0.0884
      2 C         142.3490  141.4034  161.3717 C.ar    1  UNL1        0.0509
      3 C         141.5964  142.1450  162.4365 C.ar    1  UNL1        0.1360
      4 N         141.5987  141.6377  163.8480 N.ar    1  UNL1       -0.1985
      5 C         142.3536  140.3888  164.1949 C.ar    1  UNL1        0.2239
      6 N         143.1063  139.6473  163.1301 N.ar    1  UNL1       -0.2160
      7 N         140.8414  143.3939  162.0895 N.pl3   1  UNL1       -0.2880
      8 C         141.2437  144.2058  160.8942 C.3     1  UNL1        0.1242
      9 C         140.4888  145.4547  160.5472 C.3     1  UNL1        0.1636
     10 O         139.3315  145.8917  161.3957 O.3     1  UNL1       -0.3501
     11 C         138.9292  145.0798  162.5911 C.3     1  UNL1        0.1636
     12 C         139.6842  143.8309  162.9380 C.3     1  UNL1        0.1242
     13 N         142.3560  139.8815  165.6065 N.am    1  UNL1       -0.2478
     14 C         142.8384  140.7635  166.7197 C.2     1  UNL1        0.2891
     15 O         143.3186  142.1529  166.4213 O.2     1  UNL1       -0.2663
     16 H         142.0409  138.9696  165.8024 H       1  UNL1        0.1581
     17 C         142.8408  140.2562  168.1313 C.ar    1  UNL1        0.2303
     18 C         142.7263  141.0948  169.3697 C.ar    1  UNL1        0.0690
     19 C         142.7728  140.1781  170.5562 C.ar    1  UNL1        0.1440
     20 N         142.9160  138.7729  170.0509 N.ar    1  UNL1       -0.0751
     21 O         142.9580  138.8212  168.5523 O.2     1  UNL1       -0.3487
     22 C         143.8566  139.4130  160.6538 C.3     1  UNL1        0.1964
     23 C         142.3911  138.2788  158.2946 C.3     1  UNL1        0.1765
     24 S         143.1238  138.8459  159.4743 S.O2    1  UNL1       -0.0025
     25 O         143.9177  139.7280  158.5570 O.2     1  UNL1       -0.1726
     26 O         142.3299  137.9637  160.3916 O.2     1  UNL1       -0.1726
@<TRIPOS>BOND
     1    23    24    1
     2    24    25    2
     3    24    26    2
     4    24    22    1
     5    22     1    1
     6     1     2   ar
     7     2     3   ar
     8     3     7    1
     9     7     8    1
    10     8     9    1
    11     9    10    1
    12    10    11    1
    13    11    12    1
    14     3     4   ar
    15     4     5   ar
    16     5    13    1
    17    13    14   am
    18    14    15    2
    19    14    17    1
    20    17    18   ar
    21    18    19   ar
    22    19    20   ar
    23    20    21   ar
    24     5     6   ar
    25     6     1   ar
    26    12     7    1
    27    21    17   ar
    28    13    16    1
@<TRIPOS>MOLECULE
*****
 26 28 0 0 0
SMALL
GASTEIGER

@<TRIPOS>ATOM
      1 C         142.1715  141.6565  162.9831 C.ar    1  UNL1        0.0884
      2 C         141.5604  141.1905  164.2713 C.ar    1  UNL1        0.0509
      3 C         140.2156  140.5261  164.2663 C.ar    1  UNL1        0.1360
      4 N         139.4819  140.3277  162.9732 N.ar    1  UNL1       -0.1985
      5 C         140.0930  140.7937  161.6850 C.ar    1  UNL1        0.2239
      6 N         141.4378  141.4581  161.6900 N.ar    1  UNL1       -0.2160
      7 N         139.6045  140.0601  165.5546 N.pl3   1  UNL1       -0.2880
      8 C         140.1592  140.5380  166.8638 C.3     1  UNL1        0.1242
      9 C         139.5482  140.0721  168.1520 C.3     1  UNL1        0.1636
     10 O         138.3824  139.1282  168.1310 O.3     1  UNL1       -0.3501
     11 C         137.8278  138.6504  166.8218 C.3     1  UNL1        0.1636
     12 C         138.4389  139.1164  165.5335 C.3     1  UNL1        0.1242
     13 N         139.3592  140.5953  160.3918 N.am    1  UNL1       -0.2478
     14 C         138.6091  141.7370  159.7723 C.2     1  UNL1        0.2891
     15 O         138.5927  143.0771  160.4459 O.2     1  UNL1       -0.2663
     16 H         139.3700  139.7157  159.9497 H       1  UNL1        0.1581
     17 C         137.8754  141.5386  158.4791 C.ar    1  UNL1        0.2303
     18 C         137.7052  142.5623  157.3960 C.ar    1  UNL1        0.0690
     19 C         136.9077  141.9381  156.2894 C.ar    1  UNL1        0.1440
     20 N         136.5850  140.5286  156.6887 N.ar    1  UNL1       -0.0751
     21 O         137.1831  140.2817  158.0420 O.2     1  UNL1       -0.3487
     22 C         143.5164  142.3209  162.9881 C.3     1  UNL1        0.1964
     23 C         144.5548  143.5868  165.5019 C.3     1  UNL1        0.1765
     24 S         144.0355  142.9539  164.2450 S.O2    1  UNL1       -0.0025
     25 O         144.9083  141.7581  164.4867 O.2     1  UNL1       -0.1726
     26 O         143.1628  144.1496  164.0033 O.2     1  UNL1       -0.1726
@<TRIPOS>BOND
     1    23    24    1
     2    24    25    2
     3    24    26    2
     4    24    22    1
     5    22     1    1
     6     1     2   ar
     7     2     3   ar
     8     3     7    1
     9     7     8    1
    10     8     9    1
    11     9    10    1
    12    10    11    1
    13    11    12    1
    14     3     4   ar
    15     4     5   ar
    16     5    13    1
    17    13    14   am
    18    14    15    2
    19    14    17    1
    20    17    18   ar
    21    18    19   ar
    22    19    20   ar
    23    20    21   ar
    24     5     6   ar
    25     6     1   ar
    26    12     7    1
    27    21    17   ar
    28    13    16    1
