@<TRIPOS>MOLECULE
*****
 31 34 0 0 0
SMALL
GASTEIGER

@<TRIPOS>ATOM
      1 C         141.9664  144.2892  159.8394 C.ar    1  UNL1        0.1366
      2 C         140.8842  145.2951  160.0978 C.ar    1  UNL1        0.0353
      3 C         140.2509  145.3835  161.4547 C.ar    1  UNL1        0.0631
      4 CL        139.1686  146.3895  161.7131 Cl      1  UNL1       -0.0821
      5 C         140.6997  144.4658  162.5531 C.ar    1  UNL1        0.0574
      6 C         140.2640  144.3213  163.9811 C.ar    1  UNL1        0.0850
      7 CL        139.2018  145.1301  164.6649 Cl      1  UNL1       -0.0799
      8 C         141.0769  143.2260  164.6052 C.ar    1  UNL1        0.1143
      9 N         142.0151  142.6936  163.5629 N.ar    1  UNL1       -0.3061
     10 C         141.7819  143.4599  162.2946 C.ar    1  UNL1        0.1460
     11 N         142.4153  143.3716  160.9377 N.ar    1  UNL1       -0.2236
     12 C         143.0114  141.5889  163.7551 C.3     1  UNL1        0.1031
     13 C         144.4789  141.8985  163.7801 C.3     1  UNL1        0.0255
     14 C         145.4752  140.7937  163.9723 C.3     1  UNL1        0.0191
     15 C         145.0040  139.3795  164.1395 C.3     1  UNL1        0.0687
     16 N         143.5365  139.0700  164.1145 N.3     1  UNL1       -0.2959
     17 C         142.5402  140.1747  163.9223 C.3     1  UNL1        0.0914
     18 H         143.3143  138.6246  165.0048 H       1  UNL1        0.1233
     19 N         142.6582  145.4136  157.6017 N.am    1  UNL1       -0.3241
     20 C         142.5998  144.2009  158.4825 C.2     1  UNL1        0.2606
     21 O         143.1748  142.8998  158.0065 O.2     1  UNL1       -0.2687
     22 H         143.0739  145.3556  156.7112 H       1  UNL1        0.1453
     23 H         142.2808  146.2675  157.9141 H       1  UNL1        0.1453
     24 C         140.9704  142.7472  166.0228 C.1     1  UNL1       -0.0460
     25 C         140.8638  142.2685  167.4403 C.1     1  UNL1       -0.0858
     26 C         140.7573  141.7897  168.8578 C.3     1  UNL1        0.0695
     27 C         141.5377  142.4735  169.9410 C.3     1  UNL1        0.0451
     28 C         141.4312  141.9947  171.3586 C.3     1  UNL1        0.1432
     29 O         140.5442  140.8322  171.6929 O.3     1  UNL1       -0.3537
     30 C         139.7637  140.1484  170.6097 C.3     1  UNL1        0.1432
     31 C         139.8703  140.6272  169.1922 C.3     1  UNL1        0.0451
@<TRIPOS>BOND
     1    19    20   am
     2    20    21    2
     3    20     1    1
     4     1     2   ar
     5     2     3   ar
     6     3     4    1
     7     3     5   ar
     8     5     6   ar
     9     6     7    1
    10     6     8   ar
    11     8    24    1
    12    24    25    3
    13    25    26    1
    14    26    27    1
    15    27    28    1
    16    28    29    1
    17    29    30    1
    18    30    31    1
    19     8     9   ar
    20    12     9    1
    21    12    13    1
    22    13    14    1
    23    14    15    1
    24    15    16    1
    25    16    17    1
    26     9    10   ar
    27    10    11   ar
    28    11     1   ar
    29    10     5   ar
    30    31    26    1
    31    17    12    1
    32    19    22    1
    33    19    23    1
    34    16    18    1
@<TRIPOS>MOLECULE
*****
 31 34 0 0 0
SMALL
GASTEIGER

@<TRIPOS>ATOM
      1 C         141.0048  141.8171  169.7149 C.ar    1  UNL1        0.1366
      2 C         141.7155  140.5481  170.0816 C.ar    1  UNL1        0.0353
      3 C         142.2896  139.6726  169.0073 C.ar    1  UNL1        0.0631
      4 CL        143.0003  138.4036  169.3741 Cl      1  UNL1       -0.0821
      5 C         142.1529  140.0661  167.5664 C.ar    1  UNL1        0.0574
      6 C         142.6126  139.4093  166.2986 C.ar    1  UNL1        0.0850
      7 CL        143.3666  138.1164  166.1987 Cl      1  UNL1       -0.0799
      8 C         142.1860  140.2724  165.1483 C.ar    1  UNL1        0.1143
      9 N         141.4626  141.4626  165.7052 N.ar    1  UNL1       -0.3061
     10 C         141.4422  141.3351  167.1996 C.ar    1  UNL1        0.1460
     11 N         140.8681  142.2105  168.2739 N.ar    1  UNL1       -0.2236
     12 C         140.8647  142.5835  164.9076 C.3     1  UNL1        0.1031
     13 C         141.7393  143.6892  164.3953 C.3     1  UNL1        0.0255
     14 C         141.1413  144.8100  163.5978 C.3     1  UNL1        0.0191
     15 C         139.6688  144.8252  163.3126 C.3     1  UNL1        0.0687
     16 N         138.7942  143.7195  163.8250 N.3     1  UNL1       -0.2959
     17 C         139.3922  142.5987  164.6225 C.3     1  UNL1        0.0914
     18 H         138.3475  143.2964  163.0114 H       1  UNL1        0.1233
     19 N         139.9525  144.0743  170.4546 N.am    1  UNL1       -0.3241
     20 C         140.4308  142.6926  170.7891 C.2     1  UNL1        0.2606
     21 O         140.3350  142.1863  172.1978 O.2     1  UNL1       -0.2687
     22 H         139.5757  144.6489  171.1597 H       1  UNL1        0.1453
     23 H         140.0153  144.4066  169.5301 H       1  UNL1        0.1453
     24 C         142.4386  139.9941  163.6961 C.1     1  UNL1       -0.0460
     25 C         142.6911  139.7158  162.2440 C.1     1  UNL1       -0.0858
     26 C         142.9437  139.4376  160.7918 C.3     1  UNL1        0.0695
     27 C         143.6374  140.4603  159.9418 C.3     1  UNL1        0.0451
     28 C         143.8900  140.1820  158.4896 C.3     1  UNL1        0.1432
     29 O         143.4487  138.8810  157.8875 O.3     1  UNL1       -0.3537
     30 C         142.7550  137.8582  158.7375 C.3     1  UNL1        0.1432
     31 C         142.5024  138.1364  160.1897 C.3     1  UNL1        0.0451
@<TRIPOS>BOND
     1    19    20   am
     2    20    21    2
     3    20     1    1
     4     1     2   ar
     5     2     3   ar
     6     3     4    1
     7     3     5   ar
     8     5     6   ar
     9     6     7    1
    10     6     8   ar
    11     8    24    1
    12    24    25    3
    13    25    26    1
    14    26    27    1
    15    27    28    1
    16    28    29    1
    17    29    30    1
    18    30    31    1
    19     8     9   ar
    20    12     9    1
    21    12    13    1
    22    13    14    1
    23    14    15    1
    24    15    16    1
    25    16    17    1
    26     9    10   ar
    27    10    11   ar
    28    11     1   ar
    29    10     5   ar
    30    31    26    1
    31    17    12    1
    32    19    22    1
    33    19    23    1
    34    16    18    1
@<TRIPOS>MOLECULE
*****
 31 34 0 0 0
SMALL
GASTEIGER

@<TRIPOS>ATOM
      1 C         142.1590  142.0076  169.0365 C.ar    1  UNL1        0.1366
      2 C         140.9442  141.2475  169.4796 C.ar    1  UNL1        0.0353
      3 C         140.0247  140.6429  168.4603 C.ar    1  UNL1        0.0631
      4 CL        138.8098  139.8827  168.9034 Cl      1  UNL1       -0.0821
      5 C         140.3199  140.7985  166.9979 C.ar    1  UNL1        0.0574
      6 C         139.6018  140.3171  165.7721 C.ar    1  UNL1        0.0850
      7 CL        138.3351  139.5140  165.7508 Cl      1  UNL1       -0.0799
      8 C         140.3728  140.7798  164.5715 C.ar    1  UNL1        0.1143
      9 N         141.5674  141.5471  165.0552 N.ar    1  UNL1       -0.3061
     10 C         141.5347  141.5587  166.5548 C.ar    1  UNL1        0.1460
     11 N         142.4543  142.1632  167.5741 N.ar    1  UNL1       -0.2236
     12 C         142.6114  142.1900  164.1910 C.3     1  UNL1        0.1031
     13 C         143.9261  141.5035  163.9668 C.3     1  UNL1        0.0255
     14 C         144.9700  142.1464  163.1026 C.3     1  UNL1        0.0191
     15 C         144.6993  143.4758  162.4628 C.3     1  UNL1        0.0687
     16 N         143.3846  144.1623  162.6871 N.3     1  UNL1       -0.2959
     17 C         142.3407  143.5194  163.5512 C.3     1  UNL1        0.0914
     18 H         142.9632  144.2988  161.7683 H       1  UNL1        0.1233
     19 N         142.5670  142.9381  171.4277 N.am    1  UNL1       -0.3241
     20 C         143.0785  142.6122  170.0558 C.2     1  UNL1        0.2606
     21 O         144.5096  142.8908  169.7032 O.2     1  UNL1       -0.2687
     22 H         143.1705  143.3349  172.0967 H       1  UNL1        0.1453
     23 H         141.6277  142.7552  171.6591 H       1  UNL1        0.1453
     24 C         140.0123  140.5205  163.1386 C.1     1  UNL1       -0.0460
     25 C         139.6520  140.2613  161.7059 C.1     1  UNL1       -0.0858
     26 C         139.2916  140.0021  160.2731 C.3     1  UNL1        0.0695
     27 C         138.2611  140.8539  159.5930 C.3     1  UNL1        0.0451
     28 C         137.9008  140.5946  158.1601 C.3     1  UNL1        0.1432
     29 O         138.5708  139.4836  157.4075 O.3     1  UNL1       -0.3537
     30 C         139.6013  138.6317  158.0876 C.3     1  UNL1        0.1432
     31 C         139.9617  138.8910  159.5204 C.3     1  UNL1        0.0451
@<TRIPOS>BOND
     1    19    20   am
     2    20    21    2
     3    20     1    1
     4     1     2   ar
     5     2     3   ar
     6     3     4    1
     7     3     5   ar
     8     5     6   ar
     9     6     7    1
    10     6     8   ar
    11     8    24    1
    12    24    25    3
    13    25    26    1
    14    26    27    1
    15    27    28    1
    16    28    29    1
    17    29    30    1
    18    30    31    1
    19     8     9   ar
    20    12     9    1
    21    12    13    1
    22    13    14    1
    23    14    15    1
    24    15    16    1
    25    16    17    1
    26     9    10   ar
    27    10    11   ar
    28    11     1   ar
    29    10     5   ar
    30    31    26    1
    31    17    12    1
    32    19    22    1
    33    19    23    1
    34    16    18    1
@<TRIPOS>MOLECULE
*****
 31 34 0 0 0
SMALL
GASTEIGER

@<TRIPOS>ATOM
      1 C         138.9982  142.0036  159.5754 C.ar    1  UNL1        0.1366
      2 C         139.4502  143.4324  159.5104 C.ar    1  UNL1        0.0353
      3 C         139.9462  144.1192  160.7482 C.ar    1  UNL1        0.0631
      4 CL        140.3982  145.5481  160.6832 Cl      1  UNL1       -0.0821
      5 C         139.9903  143.3772  162.0511 C.ar    1  UNL1        0.0574
      6 C         140.4266  143.7883  163.4261 C.ar    1  UNL1        0.0850
      7 CL        140.9528  145.1373  163.8175 Cl      1  UNL1       -0.0799
      8 C         140.2443  142.6136  164.3409 C.ar    1  UNL1        0.1143
      9 N         139.6953  141.4765  163.5313 N.ar    1  UNL1       -0.3061
     10 C         139.5384  141.9484  162.1161 C.ar    1  UNL1        0.1460
     11 N         139.0423  141.2616  160.8782 N.ar    1  UNL1       -0.2236
     12 C         139.3618  140.1077  164.0463 C.3     1  UNL1        0.1031
     13 C         138.5250  139.9546  165.2818 C.3     1  UNL1        0.0255
     14 C         138.1916  138.5858  165.7968 C.3     1  UNL1        0.0191
     15 C         138.6949  137.3702  165.0764 C.3     1  UNL1        0.0687
     16 N         139.5318  137.5234  163.8410 N.3     1  UNL1       -0.2959
     17 C         139.8652  138.8921  163.3260 C.3     1  UNL1        0.0914
     18 H         139.0403  137.0380  163.0904 H       1  UNL1        0.1233
     19 N         138.3393  142.0922  157.0638 N.am    1  UNL1       -0.3241
     20 C         138.5021  141.3169  158.3375 C.2     1  UNL1        0.2606
     21 O         138.1689  139.8548  158.3734 O.2     1  UNL1       -0.2687
     22 H         138.0137  141.6414  156.2514 H       1  UNL1        0.1453
     23 H         138.5580  143.0518  157.0403 H       1  UNL1        0.1453
     24 C         140.5561  142.5817  165.8078 C.1     1  UNL1       -0.0460
     25 C         140.8680  142.5498  167.2746 C.1     1  UNL1       -0.0858
     26 C         141.1799  142.5179  168.7415 C.3     1  UNL1        0.0695
     27 C         140.0831  142.2788  169.7364 C.3     1  UNL1        0.0451
     28 C         140.3951  142.2469  171.2033 C.3     1  UNL1        0.1432
     29 O         141.8037  142.4540  171.6752 O.3     1  UNL1       -0.3537
     30 C         142.9005  142.6931  170.6803 C.3     1  UNL1        0.1432
     31 C         142.5886  142.7250  169.2134 C.3     1  UNL1        0.0451
@<TRIPOS>BOND
     1    19    20   am
     2    20    21    2
     3    20     1    1
     4     1     2   ar
     5     2     3   ar
     6     3     4    1
     7     3     5   ar
     8     5     6   ar
     9     6     7    1
    10     6     8   ar
    11     8    24    1
    12    24    25    3
    13    25    26    1
    14    26    27    1
    15    27    28    1
    16    28    29    1
    17    29    30    1
    18    30    31    1
    19     8     9   ar
    20    12     9    1
    21    12    13    1
    22    13    14    1
    23    14    15    1
    24    15    16    1
    25    16    17    1
    26     9    10   ar
    27    10    11   ar
    28    11     1   ar
    29    10     5   ar
    30    31    26    1
    31    17    12    1
    32    19    22    1
    33    19    23    1
    34    16    18    1
@<TRIPOS>MOLECULE
*****
 31 34 0 0 0
SMALL
GASTEIGER

@<TRIPOS>ATOM
      1 C         142.3629  140.3482  168.8560 C.ar    1  UNL1        0.1366
      2 C         141.5618  141.5034  169.3792 C.ar    1  UNL1        0.0353
      3 C         140.9161  142.4623  168.4234 C.ar    1  UNL1        0.0631
      4 CL        140.1150  143.6176  168.9467 Cl      1  UNL1       -0.0821
      5 C         141.0715  142.2661  166.9445 C.ar    1  UNL1        0.0574
      6 C         140.5548  143.0418  165.7693 C.ar    1  UNL1        0.0850
      7 CL        139.7054  144.2765  165.8325 Cl      1  UNL1       -0.0799
      8 C         141.0365  142.3661  164.5197 C.ar    1  UNL1        0.1143
      9 N         141.8510  141.1727  164.9227 N.ar    1  UNL1       -0.3061
     10 C         141.8726  141.1109  166.4213 C.ar    1  UNL1        0.1460
     11 N         142.5183  140.1520  167.3771 N.ar    1  UNL1       -0.2236
     12 C         142.5254  140.2101  163.9908 C.3     1  UNL1        0.1031
     13 C         141.7998  138.9819  163.5270 C.3     1  UNL1        0.0255
     14 C         142.4743  138.0194  162.5951 C.3     1  UNL1        0.0191
     15 C         143.8744  138.2850  162.1269 C.3     1  UNL1        0.0687
     16 N         144.6000  139.5131  162.5907 N.3     1  UNL1       -0.2959
     17 C         143.9255  140.4757  163.5226 C.3     1  UNL1        0.0914
     18 H         144.8513  140.0401  161.7543 H       1  UNL1        0.1233
     19 N         143.3810  139.8427  171.1923 N.am    1  UNL1       -0.3241
     20 C         143.0087  139.3893  169.8118 C.2     1  UNL1        0.2606
     21 O         143.2820  137.9769  169.3871 O.2     1  UNL1       -0.2687
     22 H         143.8048  139.2134  171.8196 H       1  UNL1        0.1453
     23 H         143.2016  140.7697  171.4710 H       1  UNL1        0.1453
     24 C         140.7534  142.8064  163.1140 C.1     1  UNL1       -0.0460
     25 C         140.4703  143.2468  161.7084 C.1     1  UNL1       -0.0858
     26 C         140.1871  143.6872  160.3027 C.3     1  UNL1        0.0695
     27 C         139.4585  142.7731  159.3628 C.3     1  UNL1        0.0451
     28 C         139.1753  143.2136  157.9571 C.3     1  UNL1        0.1432
     29 O         139.6209  144.5680  157.4914 O.3     1  UNL1       -0.3537
     30 C         140.3496  145.4821  158.4313 C.3     1  UNL1        0.1432
     31 C         140.6327  145.0417  159.8370 C.3     1  UNL1        0.0451
@<TRIPOS>BOND
     1    19    20   am
     2    20    21    2
     3    20     1    1
     4     1     2   ar
     5     2     3   ar
     6     3     4    1
     7     3     5   ar
     8     5     6   ar
     9     6     7    1
    10     6     8   ar
    11     8    24    1
    12    24    25    3
    13    25    26    1
    14    26    27    1
    15    27    28    1
    16    28    29    1
    17    29    30    1
    18    30    31    1
    19     8     9   ar
    20    12     9    1
    21    12    13    1
    22    13    14    1
    23    14    15    1
    24    15    16    1
    25    16    17    1
    26     9    10   ar
    27    10    11   ar
    28    11     1   ar
    29    10     5   ar
    30    31    26    1
    31    17    12    1
    32    19    22    1
    33    19    23    1
    34    16    18    1
@<TRIPOS>MOLECULE
*****
 31 34 0 0 0
SMALL
GASTEIGER

@<TRIPOS>ATOM
      1 C         140.3488  140.5556  169.0955 C.ar    1  UNL1        0.1366
      2 C         141.5875  141.2705  169.5473 C.ar    1  UNL1        0.0353
      3 C         142.5038  141.8949  168.5371 C.ar    1  UNL1        0.0631
      4 CL        143.7427  142.6099  168.9891 Cl      1  UNL1       -0.0821
      5 C         142.1813  141.8044  167.0750 C.ar    1  UNL1        0.0574
      6 C         142.8901  142.3185  165.8571 C.ar    1  UNL1        0.0850
      7 CL        144.1742  143.0937  165.8459 Cl      1  UNL1       -0.0799
      8 C         142.0894  141.9213  164.6525 C.ar    1  UNL1        0.1143
      9 N         140.8857  141.1617  165.1259 N.ar    1  UNL1       -0.3061
     10 C         140.9425  141.0895  166.6232 C.ar    1  UNL1        0.1460
     11 N         140.0263  140.4651  167.6334 N.ar    1  UNL1       -0.2236
     12 C         139.8135  140.5770  164.2551 C.3     1  UNL1        0.1031
     13 C         140.0892  139.3381  163.4556 C.3     1  UNL1        0.0255
     14 C         139.0169  138.7535  162.5848 C.3     1  UNL1        0.0191
     15 C         137.6689  139.4077  162.5134 C.3     1  UNL1        0.0687
     16 N         137.3932  140.6466  163.3129 N.3     1  UNL1       -0.2959
     17 C         138.4655  141.2312  164.1837 C.3     1  UNL1        0.0914
     18 H         136.6027  140.4344  163.9216 H       1  UNL1        0.1233
     19 N         139.9581  139.5423  171.4556 N.am    1  UNL1       -0.3241
     20 C         139.4325  139.9311  170.1057 C.2     1  UNL1        0.2606
     21 O         137.9906  139.6956  169.7659 O.2     1  UNL1       -0.2687
     22 H         139.3567  139.1324  172.1187 H       1  UNL1        0.1453
     23 H         140.9044  139.6969  171.6787 H       1  UNL1        0.1453
     24 C         142.4322  142.2296  163.2251 C.1     1  UNL1       -0.0460
     25 C         142.7750  142.5379  161.7977 C.1     1  UNL1       -0.0858
     26 C         143.1178  142.8462  160.3704 C.3     1  UNL1        0.0695
     27 C         142.2271  143.7423  159.5618 C.3     1  UNL1        0.0451
     28 C         142.5700  144.0506  158.1344 C.3     1  UNL1        0.1432
     29 O         143.8035  143.4628  157.5156 O.3     1  UNL1       -0.3537
     30 C         144.6942  142.5667  158.3241 C.3     1  UNL1        0.1432
     31 C         144.3514  142.2584  159.7515 C.3     1  UNL1        0.0451
@<TRIPOS>BOND
     1    19    20   am
     2    20    21    2
     3    20     1    1
     4     1     2   ar
     5     2     3   ar
     6     3     4    1
     7     3     5   ar
     8     5     6   ar
     9     6     7    1
    10     6     8   ar
    11     8    24    1
    12    24    25    3
    13    25    26    1
    14    26    27    1
    15    27    28    1
    16    28    29    1
    17    29    30    1
    18    30    31    1
    19     8     9   ar
    20    12     9    1
    21    12    13    1
    22    13    14    1
    23    14    15    1
    24    15    16    1
    25    16    17    1
    26     9    10   ar
    27    10    11   ar
    28    11     1   ar
    29    10     5   ar
    30    31    26    1
    31    17    12    1
    32    19    22    1
    33    19    23    1
    34    16    18    1
@<TRIPOS>MOLECULE
*****
 31 34 0 0 0
SMALL
GASTEIGER

@<TRIPOS>ATOM
      1 C         141.2105  139.3981  159.0901 C.ar    1  UNL1        0.1366
      2 C         142.3498  138.4847  159.4330 C.ar    1  UNL1        0.0353
      3 C         142.9345  138.5009  160.8143 C.ar    1  UNL1        0.0631
      4 CL        144.0739  137.5875  161.1572 Cl      1  UNL1       -0.0821
      5 C         142.3799  139.4305  161.8526 C.ar    1  UNL1        0.0574
      6 C         142.7484  139.6676  163.2872 C.ar    1  UNL1        0.0850
      7 CL        143.8374  138.9677  164.0450 Cl      1  UNL1       -0.0799
      8 C         141.8368  140.7276  163.8309 C.ar    1  UNL1        0.1143
      9 N         140.9049  141.1455  162.7324 N.ar    1  UNL1       -0.3061
     10 C         141.2405  140.3439  161.5097 C.ar    1  UNL1        0.1460
     11 N         140.6558  140.3276  160.1285 N.ar    1  UNL1       -0.2236
     12 C         139.8266  142.1829  162.8379 C.3     1  UNL1        0.1031
     13 C         138.7202  142.0157  163.8368 C.3     1  UNL1        0.0255
     14 C         137.6420  143.0532  163.9423 C.3     1  UNL1        0.0191
     15 C         137.6702  144.2578  163.0489 C.3     1  UNL1        0.0687
     16 N         138.7766  144.4250  162.0500 N.3     1  UNL1       -0.2959
     17 C         139.8548  143.3875  161.9445 C.3     1  UNL1        0.0914
     18 H         139.2382  145.3083  162.2669 H       1  UNL1        0.1233
     19 N         139.2313  138.8742  157.4906 N.am    1  UNL1       -0.3241
     20 C         140.6258  139.3818  157.7089 C.2     1  UNL1        0.2606
     21 O         141.4355  139.8733  156.5458 O.2     1  UNL1       -0.2687
     22 H         138.8475  138.8635  156.5841 H       1  UNL1        0.1453
     23 H         138.6998  138.5516  158.2540 H       1  UNL1        0.1453
     24 C         141.8542  141.2736  165.2279 C.1     1  UNL1       -0.0460
     25 C         141.8716  141.8196  166.6249 C.1     1  UNL1       -0.0858
     26 C         141.8890  142.3656  168.0218 C.3     1  UNL1        0.0695
     27 C         143.1399  142.2797  168.8451 C.3     1  UNL1        0.0451
     28 C         143.1572  142.8258  170.2422 C.3     1  UNL1        0.1432
     29 O         141.9237  143.4577  170.8158 O.3     1  UNL1       -0.3537
     30 C         140.6728  143.5436  169.9925 C.3     1  UNL1        0.1432
     31 C         140.6554  142.9976  168.5955 C.3     1  UNL1        0.0451
@<TRIPOS>BOND
     1    19    20   am
     2    20    21    2
     3    20     1    1
     4     1     2   ar
     5     2     3   ar
     6     3     4    1
     7     3     5   ar
     8     5     6   ar
     9     6     7    1
    10     6     8   ar
    11     8    24    1
    12    24    25    3
    13    25    26    1
    14    26    27    1
    15    27    28    1
    16    28    29    1
    17    29    30    1
    18    30    31    1
    19     8     9   ar
    20    12     9    1
    21    12    13    1
    22    13    14    1
    23    14    15    1
    24    15    16    1
    25    16    17    1
    26     9    10   ar
    27    10    11   ar
    28    11     1   ar
    29    10     5   ar
    30    31    26    1
    31    17    12    1
    32    19    22    1
    33    19    23    1
    34    16    18    1
@<TRIPOS>MOLECULE
*****
 31 34 0 0 0
SMALL
GASTEIGER

@<TRIPOS>ATOM
      1 C         140.2105  140.7115  168.7680 C.ar    1  UNL1        0.1366
      2 C         141.3423  139.7392  168.9213 C.ar    1  UNL1        0.0353
      3 C         142.2529  139.4595  167.7626 C.ar    1  UNL1        0.0631
      4 CL        143.3847  138.4871  167.9159 Cl      1  UNL1       -0.0821
      5 C         142.0316  140.1520  166.4506 C.ar    1  UNL1        0.0574
      6 C         142.7598  140.0783  165.1413 C.ar    1  UNL1        0.0850
      7 CL        143.9592  139.2272  164.8463 Cl      1  UNL1       -0.0799
      8 C         142.0781  141.0051  164.1788 C.ar    1  UNL1        0.1143
      9 N         140.9285  141.6516  164.8932 N.ar    1  UNL1       -0.3061
     10 C         140.8998  141.1244  166.2973 C.ar    1  UNL1        0.1460
     11 N         139.9892  141.4041  167.4560 N.ar    1  UNL1       -0.2236
     12 C         139.9750  142.6500  164.3067 C.3     1  UNL1        0.1031
     13 C         138.7229  142.1814  163.6265 C.3     1  UNL1        0.0255
     14 C         137.7695  143.1799  163.0400 C.3     1  UNL1        0.0191
     15 C         138.0682  144.6469  163.1336 C.3     1  UNL1        0.0687
     16 N         139.3203  145.1154  163.8138 N.3     1  UNL1       -0.2959
     17 C         140.2737  144.1170  164.4003 C.3     1  UNL1        0.0914
     18 H         139.0298  145.7281  164.5758 H       1  UNL1        0.1233
     19 N         138.2855  139.9695  170.3471 N.am    1  UNL1       -0.3241
     20 C         139.2999  140.9913  169.9267 C.2     1  UNL1        0.2606
     21 O         139.4038  142.2928  170.6650 O.2     1  UNL1       -0.2687
     22 H         137.6879  140.1531  171.1076 H       1  UNL1        0.1453
     23 H         138.2173  139.1152  169.8626 H       1  UNL1        0.1453
     24 C         142.4761  141.2434  162.7523 C.1     1  UNL1       -0.0460
     25 C         142.8740  141.4818  161.3259 C.1     1  UNL1       -0.0858
     26 C         143.2720  141.7202  159.8994 C.3     1  UNL1        0.0695
     27 C         142.3519  141.3146  158.7863 C.3     1  UNL1        0.0451
     28 C         142.7500  141.5530  157.3598 C.3     1  UNL1        0.1432
     29 O         144.0679  142.1969  157.0465 O.3     1  UNL1       -0.3537
     30 C         144.9880  142.6025  158.1596 C.3     1  UNL1        0.1432
     31 C         144.5900  142.3641  159.5861 C.3     1  UNL1        0.0451
@<TRIPOS>BOND
     1    19    20   am
     2    20    21    2
     3    20     1    1
     4     1     2   ar
     5     2     3   ar
     6     3     4    1
     7     3     5   ar
     8     5     6   ar
     9     6     7    1
    10     6     8   ar
    11     8    24    1
    12    24    25    3
    13    25    26    1
    14    26    27    1
    15    27    28    1
    16    28    29    1
    17    29    30    1
    18    30    31    1
    19     8     9   ar
    20    12     9    1
    21    12    13    1
    22    13    14    1
    23    14    15    1
    24    15    16    1
    25    16    17    1
    26     9    10   ar
    27    10    11   ar
    28    11     1   ar
    29    10     5   ar
    30    31    26    1
    31    17    12    1
    32    19    22    1
    33    19    23    1
    34    16    18    1
@<TRIPOS>MOLECULE
*****
 31 34 0 0 0
SMALL
GASTEIGER

@<TRIPOS>ATOM
      1 C         140.8705  140.8705  168.9898 C.ar    1  UNL1        0.1366
      2 C         139.5457  140.1669  168.9928 C.ar    1  UNL1        0.0353
      3 C         139.0268  139.5398  167.7329 C.ar    1  UNL1        0.0631
      4 CL        137.7020  138.8362  167.7360 Cl      1  UNL1       -0.0821
      5 C         139.8325  139.6162  166.4700 C.ar    1  UNL1        0.0574
      6 C         139.5806  139.0964  165.0857 C.ar    1  UNL1        0.0850
      7 CL        138.3718  138.3290  164.6385 Cl      1  UNL1       -0.0799
      8 C         140.7496  139.4788  164.2271 C.ar    1  UNL1        0.1143
      9 N         141.7240  140.2349  165.0808 N.ar    1  UNL1       -0.3061
     10 C         141.1572  140.3198  166.4670 C.ar    1  UNL1        0.1460
     11 N         141.6762  140.9470  167.7269 N.ar    1  UNL1       -0.2236
     12 C         143.0351  140.8058  164.6279 C.3     1  UNL1        0.1031
     13 C         144.2370  139.9171  164.5028 C.3     1  UNL1        0.0255
     14 C         145.5480  140.4881  164.0499 C.3     1  UNL1        0.0191
     15 C         145.6571  141.9477  163.7220 C.3     1  UNL1        0.0687
     16 N         144.4553  142.8365  163.8471 N.3     1  UNL1       -0.2959
     17 C         143.1443  142.2654  164.3000 C.3     1  UNL1        0.0914
     18 H         144.2955  143.2469  162.9271 H       1  UNL1        0.1233
     19 N         142.8668  141.6562  170.4551 N.am    1  UNL1       -0.3241
     20 C         141.3895  141.4977  170.2497 C.2     1  UNL1        0.2606
     21 O         140.4311  141.9663  171.3041 O.2     1  UNL1       -0.2687
     22 H         143.2074  142.0679  171.2820 H       1  UNL1        0.1453
     23 H         143.4958  141.3487  169.7631 H       1  UNL1        0.1453
     24 C         140.9152  139.1608  162.7705 C.1     1  UNL1       -0.0460
     25 C         141.0807  138.8429  161.3140 C.1     1  UNL1       -0.0858
     26 C         141.2463  138.5249  159.8575 C.3     1  UNL1        0.0695
     27 C         142.5893  138.1200  159.3262 C.3     1  UNL1        0.0451
     28 C         142.7548  137.8020  157.8696 C.3     1  UNL1        0.1432
     29 O         141.5774  137.8890  156.9444 O.3     1  UNL1       -0.3537
     30 C         140.2344  138.2940  157.4758 C.3     1  UNL1        0.1432
     31 C         140.0688  138.6119  158.9323 C.3     1  UNL1        0.0451
@<TRIPOS>BOND
     1    19    20   am
     2    20    21    2
     3    20     1    1
     4     1     2   ar
     5     2     3   ar
     6     3     4    1
     7     3     5   ar
     8     5     6   ar
     9     6     7    1
    10     6     8   ar
    11     8    24    1
    12    24    25    3
    13    25    26    1
    14    26    27    1
    15    27    28    1
    16    28    29    1
    17    29    30    1
    18    30    31    1
    19     8     9   ar
    20    12     9    1
    21    12    13    1
    22    13    14    1
    23    14    15    1
    24    15    16    1
    25    16    17    1
    26     9    10   ar
    27    10    11   ar
    28    11     1   ar
    29    10     5   ar
    30    31    26    1
    31    17    12    1
    32    19    22    1
    33    19    23    1
    34    16    18    1
