@<TRIPOS>MOLECULE
*****
 32 33 0 0 0
SMALL
GASTEIGER

@<TRIPOS>ATOM
      1 C         139.4583  140.2607  169.3368 C.ar    1  UNL1        0.0222
      2 C         139.0840  139.8871  167.9332 C.ar    1  UNL1        0.0016
      3 C         140.1282  139.8749  166.8564 C.ar    1  UNL1        0.0001
      4 C         141.5468  140.2363  167.1833 C.ar    1  UNL1        0.0000
      5 C         141.9212  140.6100  168.5869 C.ar    1  UNL1        0.0001
      6 C         140.8769  140.6222  169.6637 C.ar    1  UNL1        0.0016
      7 C         142.5911  140.2241  166.1065 C.ar    1  UNL1        0.0000
      8 C         143.4921  139.0353  165.9490 C.ar    1  UNL1        0.0000
      9 C         144.5363  139.0231  164.8723 C.ar    1  UNL1        0.0001
     10 C         144.6796  140.1998  163.9530 C.ar    1  UNL1        0.0016
     11 C         143.7786  141.3886  164.1106 C.ar    1  UNL1        0.0222
     12 C         142.7343  141.4008  165.1873 C.ar    1  UNL1        0.0016
     13 C         143.9218  142.5653  163.1913 C.2     1  UNL1        0.1359
     14 N         142.7181  143.3824  162.8260 N.2     1  UNL1       -0.1091
     15 N         142.8613  144.5591  161.9068 N.pl3   1  UNL1       -0.1544
     16 H         143.7517  144.8231  161.5801 H       1  UNL1        0.2922
     17 C         141.6478  145.3336  161.4853 C.cat   1  UNL1        0.3997
     18 N         141.3395  145.5100  160.0280 N.pl3   1  UNL1       -0.1280
     19 N         140.7426  145.9316  162.5212 N.pl3   1  UNL1       -0.2876
     20 H         141.9336  145.1175  159.3482 H       1  UNL1        0.3062
     21 H         140.9449  145.8158  163.4777 H       1  UNL1        0.2547
     22 H         139.9461  146.4399  162.2446 H       1  UNL1        0.2547
     23 N         137.3307  139.2355  170.4195 N.2     1  UNL1       -0.1091
     24 C         138.4141  140.2729  170.4136 C.2     1  UNL1        0.1359
     25 N         136.2865  139.2477  171.4962 N.pl3   1  UNL1       -0.1544
     26 H         135.8898  140.1004  171.7876 H       1  UNL1        0.2922
     27 N         136.5515  136.6802  171.7926 N.pl3   1  UNL1       -0.1280
     28 C         135.8466  137.9608  172.1290 C.cat   1  UNL1        0.3997
     29 N         134.7019  137.9545  173.0983 N.pl3   1  UNL1       -0.2876
     30 H         136.2629  135.8356  172.2079 H       1  UNL1        0.3062
     31 H         134.4132  137.1099  173.5137 H       1  UNL1        0.2547
     32 H         134.2392  138.7950  173.3192 H       1  UNL1        0.2547
@<TRIPOS>BOND
     1    27    28    2
     2    28    29    1
     3    28    25    1
     4    25    23    1
     5    23    24    2
     6    24     1    1
     7     1     2   ar
     8     2     3   ar
     9     3     4   ar
    10     4     7    1
    11     7     8   ar
    12     8     9   ar
    13     9    10   ar
    14    10    11   ar
    15    11    13    1
    16    13    14    2
    17    14    15    1
    18    15    17    1
    19    17    18    2
    20    17    19    1
    21    11    12   ar
    22     4     5   ar
    23     5     6   ar
    24     6     1   ar
    25    12     7   ar
    26    27    30    1
    27    29    31    1
    28    29    32    1
    29    25    26    1
    30    15    16    1
    31    18    20    1
    32    19    21    1
    33    19    22    1
@<TRIPOS>MOLECULE
*****
 32 33 0 0 0
SMALL
GASTEIGER

@<TRIPOS>ATOM
      1 C         138.6736  140.3051  169.7430 C.ar    1  UNL1        0.0222
      2 C         138.8665  139.6926  168.3874 C.ar    1  UNL1        0.0016
      3 C         139.8428  140.2979  167.4229 C.ar    1  UNL1        0.0001
      4 C         140.6262  141.5158  167.8139 C.ar    1  UNL1        0.0000
      5 C         140.4333  142.1284  169.1695 C.ar    1  UNL1        0.0001
      6 C         139.4570  141.5230  170.1340 C.ar    1  UNL1        0.0016
      7 C         141.6025  142.1212  166.8494 C.ar    1  UNL1        0.0000
      8 C         143.0497  142.2429  167.2243 C.ar    1  UNL1        0.0000
      9 C         144.0260  142.8483  166.2597 C.ar    1  UNL1        0.0001
     10 C         143.5551  143.3320  164.9203 C.ar    1  UNL1        0.0016
     11 C         142.1078  143.2104  164.5454 C.ar    1  UNL1        0.0222
     12 C         141.1315  142.6050  165.5099 C.ar    1  UNL1        0.0016
     13 C         141.6368  143.6941  163.2059 C.2     1  UNL1        0.1359
     14 N         142.4896  144.6331  162.4053 N.2     1  UNL1       -0.1091
     15 N         142.0187  145.1169  161.0658 N.pl3   1  UNL1       -0.1544
     16 H         142.6389  145.1303  160.3014 H       1  UNL1        0.2922
     17 C         140.6028  145.5802  160.8911 C.cat   1  UNL1        0.3997
     18 N         140.0073  146.5552  161.8631 N.pl3   1  UNL1       -0.1280
     19 N         139.7823  145.0685  159.7443 N.pl3   1  UNL1       -0.2876
     20 H         140.5458  146.8910  162.6158 H       1  UNL1        0.3062
     21 H         140.1731  144.4286  159.1063 H       1  UNL1        0.2547
     22 H         138.8530  145.3726  159.6296 H       1  UNL1        0.2547
     23 N         136.7011  138.6855  170.2290 N.2     1  UNL1       -0.1091
     24 C         137.6973  139.6997  170.7075 C.2     1  UNL1        0.1359
     25 N         135.7248  138.0801  171.1935 N.pl3   1  UNL1       -0.1544
     26 H         134.7571  138.1689  171.0354 H       1  UNL1        0.2922
     27 N         137.3760  136.3886  172.2718 N.pl3   1  UNL1       -0.1280
     28 C         136.2228  137.3394  172.3992 C.cat   1  UNL1        0.3997
     29 N         135.5677  137.5496  173.7321 N.pl3   1  UNL1       -0.2876
     30 H         137.7028  135.9025  173.0631 H       1  UNL1        0.3062
     31 H         135.8946  137.0635  174.5233 H       1  UNL1        0.2547
     32 H         134.8109  138.1737  173.8156 H       1  UNL1        0.2547
@<TRIPOS>BOND
     1    27    28    2
     2    28    29    1
     3    28    25    1
     4    25    23    1
     5    23    24    2
     6    24     1    1
     7     1     2   ar
     8     2     3   ar
     9     3     4   ar
    10     4     7    1
    11     7     8   ar
    12     8     9   ar
    13     9    10   ar
    14    10    11   ar
    15    11    13    1
    16    13    14    2
    17    14    15    1
    18    15    17    1
    19    17    18    2
    20    17    19    1
    21    11    12   ar
    22     4     5   ar
    23     5     6   ar
    24     6     1   ar
    25    12     7   ar
    26    27    30    1
    27    29    31    1
    28    29    32    1
    29    25    26    1
    30    15    16    1
    31    18    20    1
    32    19    21    1
    33    19    22    1
@<TRIPOS>MOLECULE
*****
 32 33 0 0 0
SMALL
GASTEIGER

@<TRIPOS>ATOM
      1 C         142.0399  143.8124  164.1046 C.ar    1  UNL1        0.0222
      2 C         143.1541  142.9981  164.6924 C.ar    1  UNL1        0.0016
      3 C         142.9198  142.1946  165.9372 C.ar    1  UNL1        0.0001
      4 C         141.5714  142.2054  166.5942 C.ar    1  UNL1        0.0000
      5 C         140.4573  143.0197  166.0064 C.ar    1  UNL1        0.0001
      6 C         140.6915  143.8232  164.7616 C.ar    1  UNL1        0.0016
      7 C         141.3371  141.4018  167.8389 C.ar    1  UNL1        0.0000
      8 C         142.4613  140.6174  168.4479 C.ar    1  UNL1        0.0000
      9 C         142.2270  139.8139  169.6927 C.ar    1  UNL1        0.0001
     10 C         140.8686  139.7948  170.3285 C.ar    1  UNL1        0.0016
     11 C         139.7445  140.5792  169.7195 C.ar    1  UNL1        0.0222
     12 C         139.9787  141.3827  168.4747 C.ar    1  UNL1        0.0016
     13 C         138.3860  140.5601  170.3553 C.2     1  UNL1        0.1359
     14 N         137.7251  139.2517  170.6735 N.2     1  UNL1       -0.1091
     15 N         136.3667  139.2325  171.3092 N.pl3   1  UNL1       -0.1544
     16 H         135.7297  139.9618  171.1314 H       1  UNL1        0.2922
     17 C         135.9788  138.1023  172.2160 C.cat   1  UNL1        0.3997
     18 N         135.0363  138.3459  173.3571 N.pl3   1  UNL1       -0.1280
     19 N         136.5335  136.7284  171.9815 N.pl3   1  UNL1       -0.2876
     20 H         134.6723  139.2476  173.5110 H       1  UNL1        0.3062
     21 H         137.1521  136.5686  171.2325 H       1  UNL1        0.2547
     22 H         136.2789  135.9866  172.5766 H       1  UNL1        0.2547
     23 N         142.0514  143.9945  161.5130 N.2     1  UNL1       -0.1091
     24 C         142.2742  144.6159  162.8598 C.2     1  UNL1        0.1359
     25 N         142.2857  144.7980  160.2682 N.pl3   1  UNL1       -0.1544
     26 H         143.2044  144.9698  159.9588 H       1  UNL1        0.2922
     27 N         141.3291  145.9050  158.1212 N.pl3   1  UNL1       -0.1280
     28 C         141.1201  145.3397  159.4948 C.cat   1  UNL1        0.3997
     29 N         139.7456  145.3162  160.0950 N.pl3   1  UNL1       -0.2876
     30 H         140.5641  146.2605  157.6136 H       1  UNL1        0.3062
     31 H         138.9807  145.6717  159.5874 H       1  UNL1        0.2547
     32 H         139.6085  144.9452  160.9966 H       1  UNL1        0.2547
@<TRIPOS>BOND
     1    27    28    2
     2    28    29    1
     3    28    25    1
     4    25    23    1
     5    23    24    2
     6    24     1    1
     7     1     2   ar
     8     2     3   ar
     9     3     4   ar
    10     4     7    1
    11     7     8   ar
    12     8     9   ar
    13     9    10   ar
    14    10    11   ar
    15    11    13    1
    16    13    14    2
    17    14    15    1
    18    15    17    1
    19    17    18    2
    20    17    19    1
    21    11    12   ar
    22     4     5   ar
    23     5     6   ar
    24     6     1   ar
    25    12     7   ar
    26    27    30    1
    27    29    31    1
    28    29    32    1
    29    25    26    1
    30    15    16    1
    31    18    20    1
    32    19    21    1
    33    19    22    1
@<TRIPOS>MOLECULE
*****
 32 33 0 0 0
SMALL
GASTEIGER

@<TRIPOS>ATOM
      1 C         142.4757  142.7718  170.0897 C.ar    1  UNL1        0.0222
      2 C         143.1712  141.4965  169.7159 C.ar    1  UNL1        0.0016
      3 C         142.5389  140.5581  168.7313 C.ar    1  UNL1        0.0001
      4 C         141.2110  140.8950  168.1204 C.ar    1  UNL1        0.0000
      5 C         140.5155  142.1704  168.4942 C.ar    1  UNL1        0.0001
      6 C         141.1479  143.1087  169.4788 C.ar    1  UNL1        0.0016
      7 C         140.5787  139.9567  167.1357 C.ar    1  UNL1        0.0000
      8 C         139.1053  139.6829  167.2003 C.ar    1  UNL1        0.0000
      9 C         138.4729  138.7445  166.2156 C.ar    1  UNL1        0.0001
     10 C         139.3139  138.0799  165.1664 C.ar    1  UNL1        0.0016
     11 C         140.7873  138.3537  165.1018 C.ar    1  UNL1        0.0222
     12 C         141.4197  139.2921  166.0865 C.ar    1  UNL1        0.0016
     13 C         141.6284  137.6891  164.0525 C.2     1  UNL1        0.1359
     14 N         141.4289  138.0288  162.6052 N.2     1  UNL1       -0.1091
     15 N         142.2699  137.3643  161.5559 N.pl3   1  UNL1       -0.1544
     16 H         142.0698  136.4418  161.2762 H       1  UNL1        0.2922
     17 C         143.4157  138.1052  160.9329 C.cat   1  UNL1        0.3997
     18 N         143.3774  138.4571  159.4753 N.pl3   1  UNL1       -0.1280
     19 N         144.5999  138.4941  161.7676 N.pl3   1  UNL1       -0.2876
     20 H         142.6002  138.2019  158.9275 H       1  UNL1        0.3062
     21 H         144.6250  138.2631  162.7242 H       1  UNL1        0.2547
     22 H         145.3519  138.9804  161.3587 H       1  UNL1        0.2547
     23 N         144.5047  144.2075  170.8461 N.2     1  UNL1       -0.1091
     24 C         143.1081  143.7102  171.0744 C.2     1  UNL1        0.1359
     25 N         145.1370  145.1458  171.8308 N.pl3   1  UNL1       -0.1544
     26 H         144.6048  145.5118  172.5738 H       1  UNL1        0.2922
     27 N         147.0547  146.8676  172.1599 N.pl3   1  UNL1       -0.1280
     28 C         146.5804  145.5267  171.6834 C.cat   1  UNL1        0.3997
     29 N         147.5495  144.5666  171.0595 N.pl3   1  UNL1       -0.2876
     30 H         148.0020  147.1175  172.0631 H       1  UNL1        0.3062
     31 H         148.4968  144.8166  170.9628 H       1  UNL1        0.2547
     32 H         147.2381  143.6866  170.7468 H       1  UNL1        0.2547
@<TRIPOS>BOND
     1    27    28    2
     2    28    29    1
     3    28    25    1
     4    25    23    1
     5    23    24    2
     6    24     1    1
     7     1     2   ar
     8     2     3   ar
     9     3     4   ar
    10     4     7    1
    11     7     8   ar
    12     8     9   ar
    13     9    10   ar
    14    10    11   ar
    15    11    13    1
    16    13    14    2
    17    14    15    1
    18    15    17    1
    19    17    18    2
    20    17    19    1
    21    11    12   ar
    22     4     5   ar
    23     5     6   ar
    24     6     1   ar
    25    12     7   ar
    26    27    30    1
    27    29    31    1
    28    29    32    1
    29    25    26    1
    30    15    16    1
    31    18    20    1
    32    19    21    1
    33    19    22    1
@<TRIPOS>MOLECULE
*****
 32 33 0 0 0
SMALL
GASTEIGER

@<TRIPOS>ATOM
      1 C         142.7980  139.6396  169.1639 C.ar    1  UNL1        0.0222
      2 C         142.7262  139.1485  167.7484 C.ar    1  UNL1        0.0016
      3 C         142.7558  140.1277  166.6125 C.ar    1  UNL1        0.0001
      4 C         142.8570  141.5979  166.8920 C.ar    1  UNL1        0.0000
      5 C         142.9287  142.0889  168.3075 C.ar    1  UNL1        0.0001
      6 C         142.8992  141.1098  169.4434 C.ar    1  UNL1        0.0016
      7 C         142.8865  142.5770  165.7561 C.ar    1  UNL1        0.0000
      8 C         144.0421  143.5223  165.6105 C.ar    1  UNL1        0.0000
      9 C         144.0716  144.5014  164.4745 C.ar    1  UNL1        0.0001
     10 C         142.9456  144.5354  163.4842 C.ar    1  UNL1        0.0016
     11 C         141.7900  143.5901  163.6297 C.ar    1  UNL1        0.0222
     12 C         141.7605  142.6110  164.7657 C.ar    1  UNL1        0.0016
     13 C         140.6639  143.6240  162.6393 C.2     1  UNL1        0.1359
     14 N         139.2427  143.6041  163.1187 N.2     1  UNL1       -0.1091
     15 N         138.1167  143.6380  162.1284 N.pl3   1  UNL1       -0.1544
     16 H         137.4406  144.3520  162.1760 H       1  UNL1        0.2922
     17 C         138.0206  142.5839  161.0655 C.cat   1  UNL1        0.3997
     18 N         137.5234  141.2120  161.4125 N.pl3   1  UNL1       -0.1280
     19 N         138.4219  142.9019  159.6555 N.pl3   1  UNL1       -0.2876
     20 H         137.2601  141.0033  162.3379 H       1  UNL1        0.3062
     21 H         138.7482  143.8024  159.4277 H       1  UNL1        0.2547
     22 H         138.3589  142.2101  158.9578 H       1  UNL1        0.2547
     23 N         143.6154  137.4236  170.2461 N.2     1  UNL1       -0.1091
     24 C         142.7684  138.6604  170.2999 C.2     1  UNL1        0.1359
     25 N         143.5859  136.4445  171.3821 N.pl3   1  UNL1       -0.1544
     26 H         142.7468  136.2828  171.8710 H       1  UNL1        0.2922
     27 N         146.1639  136.1558  171.2380 N.pl3   1  UNL1       -0.1280
     28 C         144.8349  135.7115  171.7731 C.cat   1  UNL1        0.3997
     29 N         144.7548  134.5343  172.6993 N.pl3   1  UNL1       -0.2876
     30 H         146.9836  135.6748  171.4947 H       1  UNL1        0.3062
     31 H         145.5745  134.0532  172.9559 H       1  UNL1        0.2547
     32 H         143.8825  134.2427  173.0505 H       1  UNL1        0.2547
@<TRIPOS>BOND
     1    27    28    2
     2    28    29    1
     3    28    25    1
     4    25    23    1
     5    23    24    2
     6    24     1    1
     7     1     2   ar
     8     2     3   ar
     9     3     4   ar
    10     4     7    1
    11     7     8   ar
    12     8     9   ar
    13     9    10   ar
    14    10    11   ar
    15    11    13    1
    16    13    14    2
    17    14    15    1
    18    15    17    1
    19    17    18    2
    20    17    19    1
    21    11    12   ar
    22     4     5   ar
    23     5     6   ar
    24     6     1   ar
    25    12     7   ar
    26    27    30    1
    27    29    31    1
    28    29    32    1
    29    25    26    1
    30    15    16    1
    31    18    20    1
    32    19    21    1
    33    19    22    1
@<TRIPOS>MOLECULE
*****
 32 33 0 0 0
SMALL
GASTEIGER

@<TRIPOS>ATOM
      1 C         139.4908  140.1345  169.2134 C.ar    1  UNL1        0.0222
      2 C         139.1407  139.9367  167.7683 C.ar    1  UNL1        0.0016
      3 C         140.2282  139.8367  166.7400 C.ar    1  UNL1        0.0001
      4 C         141.6658  139.9346  167.1568 C.ar    1  UNL1        0.0000
      5 C         142.0159  140.1324  168.6018 C.ar    1  UNL1        0.0001
      6 C         140.9284  140.2323  169.6301 C.ar    1  UNL1        0.0016
      7 C         142.7533  139.8347  166.1284 C.ar    1  UNL1        0.0000
      8 C         143.7848  138.7505  166.2306 C.ar    1  UNL1        0.0000
      9 C         144.8723  138.6506  165.2023 C.ar    1  UNL1        0.0001
     10 C         144.9282  139.6348  164.0718 C.ar    1  UNL1        0.0016
     11 C         143.8967  140.7190  163.9696 C.ar    1  UNL1        0.0222
     12 C         142.8092  140.8189  164.9980 C.ar    1  UNL1        0.0016
     13 C         143.9527  141.7033  162.8391 C.2     1  UNL1        0.1359
     14 N         145.1201  141.6981  161.8972 N.2     1  UNL1       -0.1091
     15 N         145.1760  142.6823  160.7667 N.pl3   1  UNL1       -0.1544
     16 H         145.6279  143.5483  160.8899 H       1  UNL1        0.2922
     17 C         144.5435  142.3473  159.4485 C.cat   1  UNL1        0.3997
     18 N         143.4067  141.3705  159.3889 N.pl3   1  UNL1       -0.1280
     19 N         145.0478  142.9890  158.1900 N.pl3   1  UNL1       -0.2876
     20 H         143.0757  140.9493  160.2149 H       1  UNL1        0.3062
     21 H         145.7939  143.6301  158.2291 H       1  UNL1        0.2547
     22 H         144.6327  142.7691  157.3248 H       1  UNL1        0.2547
     23 N         137.3465  139.1730  170.3211 N.2     1  UNL1       -0.1091
     24 C         138.4034  140.2344  170.2417 C.2     1  UNL1        0.1359
     25 N         136.2590  139.2729  171.3494 N.pl3   1  UNL1       -0.1544
     26 H         135.8362  140.1423  171.5359 H       1  UNL1        0.2922
     27 N         136.4989  136.7351  171.8515 N.pl3   1  UNL1       -0.1280
     28 C         135.8156  138.0483  172.0936 C.cat   1  UNL1        0.3997
     29 N         134.6890  138.1369  173.0799 N.pl3   1  UNL1       -0.2876
     30 H         136.2080  135.9314  172.3399 H       1  UNL1        0.3062
     31 H         134.3980  137.3331  173.5683 H       1  UNL1        0.2547
     32 H         134.2405  138.9988  173.2388 H       1  UNL1        0.2547
@<TRIPOS>BOND
     1    27    28    2
     2    28    29    1
     3    28    25    1
     4    25    23    1
     5    23    24    2
     6    24     1    1
     7     1     2   ar
     8     2     3   ar
     9     3     4   ar
    10     4     7    1
    11     7     8   ar
    12     8     9   ar
    13     9    10   ar
    14    10    11   ar
    15    11    13    1
    16    13    14    2
    17    14    15    1
    18    15    17    1
    19    17    18    2
    20    17    19    1
    21    11    12   ar
    22     4     5   ar
    23     5     6   ar
    24     6     1   ar
    25    12     7   ar
    26    27    30    1
    27    29    31    1
    28    29    32    1
    29    25    26    1
    30    15    16    1
    31    18    20    1
    32    19    21    1
    33    19    22    1
@<TRIPOS>MOLECULE
*****
 32 33 0 0 0
SMALL
GASTEIGER

@<TRIPOS>ATOM
      1 C         139.0601  140.7573  169.6853 C.ar    1  UNL1        0.0222
      2 C         139.2267  139.8622  168.4933 C.ar    1  UNL1        0.0016
      3 C         140.2955  140.1518  167.4814 C.ar    1  UNL1        0.0001
      4 C         141.1975  141.3366  167.6615 C.ar    1  UNL1        0.0000
      5 C         141.0309  142.2317  168.8535 C.ar    1  UNL1        0.0001
      6 C         139.9622  141.9421  169.8654 C.ar    1  UNL1        0.0016
      7 C         142.2663  141.6263  166.6496 C.ar    1  UNL1        0.0000
      8 C         143.2677  142.7130  166.9065 C.ar    1  UNL1        0.0000
      9 C         144.3364  143.0027  165.8947 C.ar    1  UNL1        0.0001
     10 C         144.4037  142.2056  164.6258 C.ar    1  UNL1        0.0016
     11 C         143.4023  141.1188  164.3689 C.ar    1  UNL1        0.0222
     12 C         142.3336  140.8291  165.3807 C.ar    1  UNL1        0.0016
     13 C         143.4696  140.3216  163.1000 C.2     1  UNL1        0.1359
     14 N         144.2307  139.0295  163.0655 N.2     1  UNL1       -0.1091
     15 N         144.2981  138.2323  161.7967 N.pl3   1  UNL1       -0.1544
     16 H         145.1411  138.1827  161.2906 H       1  UNL1        0.2922
     17 C         143.0809  137.5106  161.2989 C.cat   1  UNL1        0.3997
     18 N         141.9166  137.2824  162.2165 N.pl3   1  UNL1       -0.1280
     19 N         143.0282  137.0172  159.8833 N.pl3   1  UNL1       -0.2876
     20 H         141.9512  137.6063  163.1456 H       1  UNL1        0.3062
     21 H         143.7924  137.1670  159.2810 H       1  UNL1        0.2547
     22 H         142.2294  136.5435  159.5565 H       1  UNL1        0.2547
     23 N         137.2131  139.1877  170.6206 N.2     1  UNL1       -0.1091
     24 C         137.9913  140.4677  170.6971 C.2     1  UNL1        0.1359
     25 N         136.1444  138.8980  171.6325 N.pl3   1  UNL1       -0.1544
     26 H         135.4545  139.5730  171.8268 H       1  UNL1        0.2922
     27 N         137.2458  136.6017  172.1463 N.pl3   1  UNL1       -0.1280
     28 C         136.1267  137.5799  172.3483 C.cat   1  UNL1        0.3997
     29 N         134.9900  137.2401  173.2661 N.pl3   1  UNL1       -0.2876
     30 H         137.2342  135.7366  172.6161 H       1  UNL1        0.3062
     31 H         134.9784  136.3750  173.7359 H       1  UNL1        0.2547
     32 H         134.2555  137.8821  173.3987 H       1  UNL1        0.2547
@<TRIPOS>BOND
     1    27    28    2
     2    28    29    1
     3    28    25    1
     4    25    23    1
     5    23    24    2
     6    24     1    1
     7     1     2   ar
     8     2     3   ar
     9     3     4   ar
    10     4     7    1
    11     7     8   ar
    12     8     9   ar
    13     9    10   ar
    14    10    11   ar
    15    11    13    1
    16    13    14    2
    17    14    15    1
    18    15    17    1
    19    17    18    2
    20    17    19    1
    21    11    12   ar
    22     4     5   ar
    23     5     6   ar
    24     6     1   ar
    25    12     7   ar
    26    27    30    1
    27    29    31    1
    28    29    32    1
    29    25    26    1
    30    15    16    1
    31    18    20    1
    32    19    21    1
    33    19    22    1
@<TRIPOS>MOLECULE
*****
 32 33 0 0 0
SMALL
GASTEIGER

@<TRIPOS>ATOM
      1 C         140.9263  144.3080  164.1210 C.ar    1  UNL1        0.0222
      2 C         142.1900  143.5687  164.4472 C.ar    1  UNL1        0.0016
      3 C         142.2624  142.7135  165.6774 C.ar    1  UNL1        0.0001
      4 C         141.0711  142.5977  166.5815 C.ar    1  UNL1        0.0000
      5 C         139.8074  143.3370  166.2553 C.ar    1  UNL1        0.0001
      6 C         139.7350  144.1921  165.0250 C.ar    1  UNL1        0.0016
      7 C         141.1435  141.7426  167.8117 C.ar    1  UNL1        0.0000
      8 C         140.3112  142.0835  169.0121 C.ar    1  UNL1        0.0000
      9 C         140.3836  141.2284  170.2424 C.ar    1  UNL1        0.0001
     10 C         141.2883  140.0323  170.2722 C.ar    1  UNL1        0.0016
     11 C         142.1205  139.6913  169.0718 C.ar    1  UNL1        0.0222
     12 C         142.0481  140.5465  167.8415 C.ar    1  UNL1        0.0016
     13 C         143.0252  138.4952  169.1015 C.2     1  UNL1        0.1359
     14 N         143.3103  137.8026  170.4012 N.2     1  UNL1       -0.1091
     15 N         144.2149  136.6065  170.4310 N.pl3   1  UNL1       -0.1544
     16 H         144.3122  136.0428  169.6297 H       1  UNL1        0.2922
     17 C         144.9714  136.2693  171.6816 C.cat   1  UNL1        0.3997
     18 N         144.7447  134.9525  172.3632 N.pl3   1  UNL1       -0.1280
     19 N         145.9546  137.2489  172.2506 N.pl3   1  UNL1       -0.2876
     20 H         144.0995  134.3095  171.9897 H       1  UNL1        0.3062
     21 H         146.1034  138.1132  171.8033 H       1  UNL1        0.2547
     22 H         146.4511  137.0276  173.0714 H       1  UNL1        0.2547
     23 N         139.8565  144.8478  161.8158 N.2     1  UNL1       -0.1091
     24 C         140.8539  145.1631  162.8908 C.2     1  UNL1        0.1359
     25 N         139.7841  145.7029  160.5855 N.pl3   1  UNL1       -0.1544
     26 H         139.2548  146.5330  160.5935 H       1  UNL1        0.2922
     27 N         141.9199  145.7727  159.1078 N.pl3   1  UNL1       -0.1280
     28 C         140.5182  145.2933  159.3432 C.cat   1  UNL1        0.3997
     29 N         139.8506  144.4043  158.3362 N.pl3   1  UNL1       -0.2876
     30 H         142.4017  145.5039  158.2924 H       1  UNL1        0.3062
     31 H         140.3324  144.1355  157.5208 H       1  UNL1        0.2547
     32 H         138.9306  144.0897  158.4907 H       1  UNL1        0.2547
@<TRIPOS>BOND
     1    27    28    2
     2    28    29    1
     3    28    25    1
     4    25    23    1
     5    23    24    2
     6    24     1    1
     7     1     2   ar
     8     2     3   ar
     9     3     4   ar
    10     4     7    1
    11     7     8   ar
    12     8     9   ar
    13     9    10   ar
    14    10    11   ar
    15    11    13    1
    16    13    14    2
    17    14    15    1
    18    15    17    1
    19    17    18    2
    20    17    19    1
    21    11    12   ar
    22     4     5   ar
    23     5     6   ar
    24     6     1   ar
    25    12     7   ar
    26    27    30    1
    27    29    31    1
    28    29    32    1
    29    25    26    1
    30    15    16    1
    31    18    20    1
    32    19    21    1
    33    19    22    1
@<TRIPOS>MOLECULE
*****
 32 33 0 0 0
SMALL
GASTEIGER

@<TRIPOS>ATOM
      1 C         140.1996  142.9457  169.3973 C.ar    1  UNL1        0.0222
      2 C         140.5005  143.1962  167.9493 C.ar    1  UNL1        0.0016
      3 C         140.3922  142.0773  166.9562 C.ar    1  UNL1        0.0001
      4 C         139.9830  140.7078  167.4111 C.ar    1  UNL1        0.0000
      5 C         139.6821  140.4572  168.8590 C.ar    1  UNL1        0.0001
      6 C         139.7904  141.5762  169.8521 C.ar    1  UNL1        0.0016
      7 C         139.8747  139.5888  166.4180 C.ar    1  UNL1        0.0000
      8 C         138.6829  138.6783  166.4411 C.ar    1  UNL1        0.0000
      9 C         138.5746  137.5593  165.4480 C.ar    1  UNL1        0.0001
     10 C         139.6580  137.3510  164.4318 C.ar    1  UNL1        0.0016
     11 C         140.8498  138.2615  164.4087 C.ar    1  UNL1        0.0222
     12 C         140.9581  139.3805  165.4018 C.ar    1  UNL1        0.0016
     13 C         141.9333  138.0532  163.3925 C.2     1  UNL1        0.1359
     14 N         143.2056  138.8428  163.4801 N.2     1  UNL1       -0.1091
     15 N         144.2891  138.6345  162.4640 N.pl3   1  UNL1       -0.1544
     16 H         145.2342  138.7028  162.7311 H       1  UNL1        0.2922
     17 C         143.9327  138.3220  161.0408 C.cat   1  UNL1        0.3997
     18 N         144.0997  139.3681  159.9788 N.pl3   1  UNL1       -0.1280
     19 N         143.4091  136.9635  160.6797 N.pl3   1  UNL1       -0.2876
     20 H         144.4433  140.2597  160.2159 H       1  UNL1        0.3062
     21 H         143.2995  136.2769  161.3767 H       1  UNL1        0.2547
     22 H         143.1752  136.7584  159.7456 H       1  UNL1        0.2547
     23 N         139.4039  145.2564  170.2790 N.2     1  UNL1       -0.1091
     24 C         140.3079  144.0646  170.3904 C.2     1  UNL1        0.1359
     25 N         139.5122  146.3753  171.2721 N.pl3   1  UNL1       -0.1544
     26 H         140.3824  146.8057  171.4357 H       1  UNL1        0.2922
     27 N         137.1377  145.9050  172.2158 N.pl3   1  UNL1       -0.1280
     28 C         138.2947  146.8385  172.0158 C.cat   1  UNL1        0.3997
     29 N         138.2341  148.2352  172.5595 N.pl3   1  UNL1       -0.2876
     30 H         136.3386  146.2090  172.7039 H       1  UNL1        0.3062
     31 H         137.4350  148.5392  173.0477 H       1  UNL1        0.2547
     32 H         138.9935  148.8479  172.4283 H       1  UNL1        0.2547
@<TRIPOS>BOND
     1    27    28    2
     2    28    29    1
     3    28    25    1
     4    25    23    1
     5    23    24    2
     6    24     1    1
     7     1     2   ar
     8     2     3   ar
     9     3     4   ar
    10     4     7    1
    11     7     8   ar
    12     8     9   ar
    13     9    10   ar
    14    10    11   ar
    15    11    13    1
    16    13    14    2
    17    14    15    1
    18    15    17    1
    19    17    18    2
    20    17    19    1
    21    11    12   ar
    22     4     5   ar
    23     5     6   ar
    24     6     1   ar
    25    12     7   ar
    26    27    30    1
    27    29    31    1
    28    29    32    1
    29    25    26    1
    30    15    16    1
    31    18    20    1
    32    19    21    1
    33    19    22    1
