@<TRIPOS>MOLECULE
*****
 45 51 0 0 0
SMALL
GASTEIGER

@<TRIPOS>ATOM
      1 C         143.7260  143.5084  164.4280 C.3     1  UNL1        0.0932
      2 C         143.4557  144.6126  163.4494 C.3     1  UNL1        0.0286
      3 C         142.0709  145.1732  163.3147 C.3     1  UNL1        0.0193
      4 C         140.9564  144.6295  164.1587 C.3     1  UNL1        0.0700
      5 C         141.2267  143.5253  165.1374 C.3     1  UNL1        0.0193
      6 C         142.6115  142.9648  165.2720 C.3     1  UNL1        0.0286
      7 C         141.6987  144.2904  164.2679 C.3     1  UNL1        0.1562
      8 O         142.9509  143.7836  164.3896 O.3     1  UNL1       -0.3572
      9 N         139.5716  145.1901  164.0241 N.3     1  UNL1       -0.2926
     10 H         139.6751  146.1762  163.7848 H       1  UNL1        0.1236
     11 C         138.6175  144.6006  163.0281 C.3     1  UNL1        0.1152
     12 C         138.5338  143.1124  162.8594 C.ar    1  UNL1        0.0765
     13 C         137.8982  142.2713  163.9264 C.ar    1  UNL1        0.0193
     14 C         137.8146  140.7831  163.7577 C.ar    1  UNL1        0.0411
     15 C         138.3666  140.1362  162.5221 C.ar    1  UNL1        0.1708
     16 C         139.0022  140.9773  161.4551 C.ar    1  UNL1        0.1682
     17 N         139.0858  142.4654  161.6238 N.ar    1  UNL1       -0.2304
     18 N         139.5542  140.3304  160.2195 N.am    1  UNL1       -0.2639
     19 C         139.4706  138.8423  160.0508 C.2     1  UNL1        0.2718
     20 O         140.0226  138.1953  158.8152 O.2     1  UNL1       -0.2707
     21 C         138.8349  138.0010  161.1178 C.3     1  UNL1        0.2898
     22 O         138.2830  138.6480  162.3534 O.3     1  UNL1       -0.4628
     23 H         139.9714  140.8825  159.5192 H       1  UNL1        0.1565
     24 C         145.1108  142.9479  164.5627 C.3     1  UNL1        0.0320
     25 C         145.5627  141.8400  163.6580 C.3     1  UNL1        0.0327
     26 C         143.0865  138.7708  165.8256 C.ar    1  UNL1        0.2249
     27 C         142.0754  137.9564  165.0744 C.ar    1  UNL1        0.0593
     28 C         141.8897  138.1650  163.6007 C.ar    1  UNL1        0.0254
     29 C         142.7151  139.1880  162.8781 C.ar    1  UNL1        0.0990
     30 N         142.5294  139.3967  161.4043 N.ar    1  UNL1       -0.2400
     31 C         143.3548  140.4197  160.6818 C.ar    1  UNL1        0.1281
     32 C         144.3659  141.2342  161.4331 C.ar    1  UNL1        0.1566
     33 F         145.1913  142.2572  160.7105 F       1  UNL1       -0.2028
     34 C         144.5516  141.0255  162.9068 C.ar    1  UNL1        0.0261
     35 C         143.7262  140.0025  163.6293 C.ar    1  UNL1        0.1002
     36 N         143.9119  139.7939  165.1031 N.ar    1  UNL1       -0.2104
     37 O         143.2722  138.5622  167.2994 O.3     1  UNL1       -0.4602
     38 C         142.6796  139.5352  168.2752 C.3     1  UNL1        0.2075
     39 C         139.9546  140.3994  168.7492 C.3     1  UNL1        0.1028
     40 C         140.0709  140.2819  167.2583 C.3     1  UNL1        0.0155
     41 C         141.2504  139.9668  168.1297 C.3     1  UNL1        0.0549
     42 C         139.1393  140.7169  169.9675 C.2     1  UNL1        0.3167
     43 O         138.2201  139.6821  170.5455 O.2     1  UNL1       -0.2501
     44 C         140.2945  143.0368  170.1510 C.3     1  UNL1        0.2556
     45 O         139.2432  142.0694  170.6080 O.3     1  UNL1       -0.4444
@<TRIPOS>BOND
     1    44    45    1
     2    45    42    1
     3    42    43    2
     4    39    42    1
     5    39    40    1
     6    40    41    1
     7    41    38    1
     8    38    37    1
     9    37    26    1
    10    26    27   ar
    11    27    28   ar
    12    28    29   ar
    13    29    30   ar
    14    30    31   ar
    15    31    32   ar
    16    32    33    1
    17    32    34   ar
    18    34    25    1
    19    25    24    1
    20    24     1    1
    21     1     2    1
    22     2     3    1
    23     3     4    1
    24     4     9    1
    25     9    11    1
    26    11    12    1
    27    12    13   ar
    28    13    14   ar
    29    14    15   ar
    30    15    16   ar
    31    16    17   ar
    32    16    18    1
    33    18    19   am
    34    19    20    2
    35    19    21    1
    36    21    22    1
    37     4     5    1
    38     5     6    1
    39     4     7    1
    40     7     8    1
    41    34    35   ar
    42    35    36   ar
    43    41    39    1
    44    36    26   ar
    45    35    29   ar
    46     6     1    1
    47     8     1    1
    48    17    12   ar
    49    22    15    1
    50     9    10    1
    51    18    23    1
@<TRIPOS>MOLECULE
*****
 45 51 0 0 0
SMALL
GASTEIGER

@<TRIPOS>ATOM
      1 C         141.7055  138.4068  164.0976 C.3     1  UNL1        0.0932
      2 C         142.1004  138.6551  162.6720 C.3     1  UNL1        0.0286
      3 C         143.3851  139.3649  162.3623 C.3     1  UNL1        0.0193
      4 C         144.2748  139.8265  163.4783 C.3     1  UNL1        0.0700
      5 C         143.8798  139.5782  164.9040 C.3     1  UNL1        0.0193
      6 C         142.5952  138.8684  165.2136 C.3     1  UNL1        0.0286
      7 C         143.5805  139.4417  163.6974 C.3     1  UNL1        0.1562
      8 O         142.4189  138.7999  163.9773 O.3     1  UNL1       -0.3572
      9 N         145.5594  140.5363  163.1687 N.3     1  UNL1       -0.2926
     10 H         145.7454  140.3892  162.1766 H       1  UNL1        0.1236
     11 C         145.6806  142.0104  163.4180 C.3     1  UNL1        0.1152
     12 C         144.4908  142.9037  163.2272 C.ar    1  UNL1        0.0765
     13 C         143.8645  143.5815  164.4097 C.ar    1  UNL1        0.0193
     14 C         142.6748  144.4748  164.2188 C.ar    1  UNL1        0.0411
     15 C         142.1113  144.6903  162.8454 C.ar    1  UNL1        0.1708
     16 C         142.7377  144.0126  161.6630 C.ar    1  UNL1        0.1682
     17 N         143.9274  143.1193  161.8538 N.ar    1  UNL1       -0.2304
     18 N         142.1742  144.2281  160.2896 N.am    1  UNL1       -0.2639
     19 C         140.9845  145.1214  160.0987 C.2     1  UNL1        0.2718
     20 O         140.4211  145.3369  158.7254 O.2     1  UNL1       -0.2707
     21 C         140.3581  145.7992  161.2812 C.3     1  UNL1        0.2898
     22 O         140.9215  145.5837  162.6546 O.3     1  UNL1       -0.4628
     23 H         142.5853  143.7833  159.5135 H       1  UNL1        0.1565
     24 C         140.4208  137.6970  164.4073 C.3     1  UNL1        0.0320
     25 C         139.1685  138.4855  164.6521 C.3     1  UNL1        0.0327
     26 C         139.0936  142.9661  165.0618 C.ar    1  UNL1        0.2249
     27 C         138.5124  143.8099  163.9663 C.ar    1  UNL1        0.0593
     28 C         137.9561  143.1600  162.7342 C.ar    1  UNL1        0.0254
     29 C         137.9811  141.6665  162.5976 C.ar    1  UNL1        0.0990
     30 N         137.4248  141.0166  161.3653 N.ar    1  UNL1       -0.2400
     31 C         137.4497  139.5231  161.2287 C.ar    1  UNL1        0.1281
     32 C         138.0310  138.6793  162.3244 C.ar    1  UNL1        0.1566
     33 F         138.0559  137.1858  162.1878 F       1  UNL1       -0.2028
     34 C         138.5872  139.3292  163.5565 C.ar    1  UNL1        0.0261
     35 C         138.5623  140.8227  163.6931 C.ar    1  UNL1        0.1002
     36 N         139.1186  141.4726  164.9253 N.ar    1  UNL1       -0.2104
     37 O         139.6499  143.6160  166.2941 O.3     1  UNL1       -0.4602
     38 C         140.6540  142.8879  167.1377 C.3     1  UNL1        0.2075
     39 C         139.9784  141.7147  169.6999 C.3     1  UNL1        0.1028
     40 C         140.2922  143.1503  170.0008 C.3     1  UNL1        0.0155
     41 C         140.3760  142.6438  168.5914 C.3     1  UNL1        0.0549
     42 C         139.5678  140.3494  170.1660 C.2     1  UNL1        0.3167
     43 O         138.1182  140.0400  170.3959 O.2     1  UNL1       -0.2501
     44 C         142.0293  139.5364  169.9933 C.3     1  UNL1        0.2556
     45 O         140.6067  139.2936  170.4022 O.3     1  UNL1       -0.4444
@<TRIPOS>BOND
     1    44    45    1
     2    45    42    1
     3    42    43    2
     4    39    42    1
     5    39    40    1
     6    40    41    1
     7    41    38    1
     8    38    37    1
     9    37    26    1
    10    26    27   ar
    11    27    28   ar
    12    28    29   ar
    13    29    30   ar
    14    30    31   ar
    15    31    32   ar
    16    32    33    1
    17    32    34   ar
    18    34    25    1
    19    25    24    1
    20    24     1    1
    21     1     2    1
    22     2     3    1
    23     3     4    1
    24     4     9    1
    25     9    11    1
    26    11    12    1
    27    12    13   ar
    28    13    14   ar
    29    14    15   ar
    30    15    16   ar
    31    16    17   ar
    32    16    18    1
    33    18    19   am
    34    19    20    2
    35    19    21    1
    36    21    22    1
    37     4     5    1
    38     5     6    1
    39     4     7    1
    40     7     8    1
    41    34    35   ar
    42    35    36   ar
    43    41    39    1
    44    36    26   ar
    45    35    29   ar
    46     6     1    1
    47     8     1    1
    48    17    12   ar
    49    22    15    1
    50     9    10    1
    51    18    23    1
@<TRIPOS>MOLECULE
*****
 45 51 0 0 0
SMALL
GASTEIGER

@<TRIPOS>ATOM
      1 C         137.8906  142.7444  163.7772 C.3     1  UNL1        0.0932
      2 C         137.7050  142.5634  162.2998 C.3     1  UNL1        0.0286
      3 C         137.7188  141.1863  161.7052 C.3     1  UNL1        0.0193
      4 C         137.9181  139.9902  162.5881 C.3     1  UNL1        0.0700
      5 C         138.1037  140.1712  164.0656 C.3     1  UNL1        0.0193
      6 C         138.0899  141.5482  164.6601 C.3     1  UNL1        0.0286
      7 C         137.9181  140.7250  162.9597 C.3     1  UNL1        0.1562
      8 O         137.9056  141.9702  163.4973 O.3     1  UNL1       -0.3572
      9 N         137.9319  138.6131  161.9936 N.3     1  UNL1       -0.2926
     10 H         137.1930  138.5884  161.2909 H       1  UNL1        0.1236
     11 C         139.1747  138.0936  161.3337 C.3     1  UNL1        0.1152
     12 C         140.5217  138.4261  161.9038 C.ar    1  UNL1        0.0765
     13 C         141.5038  139.2195  161.0939 C.ar    1  UNL1        0.0193
     14 C         142.8508  139.5520  161.6640 C.ar    1  UNL1        0.0411
     15 C         143.2156  139.0912  163.0441 C.ar    1  UNL1        0.1708
     16 C         142.2335  138.2978  163.8540 C.ar    1  UNL1        0.1682
     17 N         140.8866  137.9653  163.2838 N.ar    1  UNL1       -0.2304
     18 N         142.5984  137.8370  165.2340 N.am    1  UNL1       -0.2639
     19 C         143.9453  138.1695  165.8041 C.2     1  UNL1        0.2718
     20 O         144.3102  137.7086  167.1842 O.2     1  UNL1       -0.2707
     21 C         144.9275  138.9629  164.9942 C.3     1  UNL1        0.2898
     22 O         144.5627  139.4237  163.6142 O.3     1  UNL1       -0.4628
     23 H         141.9538  137.3163  165.7656 H       1  UNL1        0.1565
     24 C         137.8768  144.1215  164.3718 C.3     1  UNL1        0.0320
     25 C         139.1689  144.8238  164.6671 C.3     1  UNL1        0.0327
     26 C         142.8769  142.6078  165.9280 C.ar    1  UNL1        0.2249
     27 C         144.0332  142.4807  164.9809 C.ar    1  UNL1        0.0593
     28 C         143.9534  143.0923  163.6136 C.ar    1  UNL1        0.0254
     29 C         142.7174  143.8309  163.1933 C.ar    1  UNL1        0.0990
     30 N         142.6376  144.4425  161.8260 N.ar    1  UNL1       -0.2400
     31 C         141.4016  145.1812  161.4057 C.ar    1  UNL1        0.1281
     32 C         140.2453  145.3083  162.3528 C.ar    1  UNL1        0.1566
     33 F         139.0093  146.0469  161.9325 F       1  UNL1       -0.2028
     34 C         140.3251  144.6967  163.7201 C.ar    1  UNL1        0.0261
     35 C         141.5611  143.9580  164.1404 C.ar    1  UNL1        0.1002
     36 N         141.6409  143.3465  165.5077 N.ar    1  UNL1       -0.2104
     37 O         142.9567  141.9962  167.2953 O.3     1  UNL1       -0.4602
     38 C         142.4704  140.5951  167.5198 C.3     1  UNL1        0.2075
     39 C         140.1913  140.2235  169.2706 C.3     1  UNL1        0.1028
     40 C         139.6416  140.0814  167.8822 C.3     1  UNL1        0.0155
     41 C         141.1017  140.3579  168.0860 C.3     1  UNL1        0.0549
     42 C         139.9831  140.2279  170.7560 C.2     1  UNL1        0.3167
     43 O         139.1622  139.1511  171.4014 O.2     1  UNL1       -0.2501
     44 C         141.9199  141.8989  171.2104 C.3     1  UNL1        0.2556
     45 O         140.5958  141.3091  171.5960 O.3     1  UNL1       -0.4444
@<TRIPOS>BOND
     1    44    45    1
     2    45    42    1
     3    42    43    2
     4    39    42    1
     5    39    40    1
     6    40    41    1
     7    41    38    1
     8    38    37    1
     9    37    26    1
    10    26    27   ar
    11    27    28   ar
    12    28    29   ar
    13    29    30   ar
    14    30    31   ar
    15    31    32   ar
    16    32    33    1
    17    32    34   ar
    18    34    25    1
    19    25    24    1
    20    24     1    1
    21     1     2    1
    22     2     3    1
    23     3     4    1
    24     4     9    1
    25     9    11    1
    26    11    12    1
    27    12    13   ar
    28    13    14   ar
    29    14    15   ar
    30    15    16   ar
    31    16    17   ar
    32    16    18    1
    33    18    19   am
    34    19    20    2
    35    19    21    1
    36    21    22    1
    37     4     5    1
    38     5     6    1
    39     4     7    1
    40     7     8    1
    41    34    35   ar
    42    35    36   ar
    43    41    39    1
    44    36    26   ar
    45    35    29   ar
    46     6     1    1
    47     8     1    1
    48    17    12   ar
    49    22    15    1
    50     9    10    1
    51    18    23    1
@<TRIPOS>MOLECULE
*****
 45 51 0 0 0
SMALL
GASTEIGER

@<TRIPOS>ATOM
      1 C         141.9543  138.1683  164.0641 C.3     1  UNL1        0.0932
      2 C         142.7295  138.8326  165.1630 C.3     1  UNL1        0.0286
      3 C         143.9415  139.6535  164.8356 C.3     1  UNL1        0.0193
      4 C         144.3783  139.8101  163.4092 C.3     1  UNL1        0.0700
      5 C         143.6031  139.1458  162.3102 C.3     1  UNL1        0.0193
      6 C         142.3911  138.3249  162.6376 C.3     1  UNL1        0.0286
      7 C         143.7077  139.3505  163.5395 C.3     1  UNL1        0.1562
      8 O         142.6118  138.6082  163.8356 O.3     1  UNL1       -0.3572
      9 N         145.5903  140.6310  163.0818 N.3     1  UNL1       -0.2926
     10 H         145.9810  140.2487  162.2206 H       1  UNL1        0.1236
     11 C         145.4609  142.1115  162.8788 C.3     1  UNL1        0.1152
     12 C         144.4565  142.6498  161.9032 C.ar    1  UNL1        0.0765
     13 C         144.5142  142.2363  160.4625 C.ar    1  UNL1        0.0193
     14 C         143.5099  142.7747  159.4871 C.ar    1  UNL1        0.0411
     15 C         142.4480  143.7264  159.9523 C.ar    1  UNL1        0.1708
     16 C         142.3903  144.1399  161.3930 C.ar    1  UNL1        0.1682
     17 N         143.3946  143.6016  162.3685 N.ar    1  UNL1       -0.2304
     18 N         141.3284  145.0917  161.8582 N.am    1  UNL1       -0.2639
     19 C         140.3242  145.6300  160.8828 C.2     1  UNL1        0.2718
     20 O         139.2622  146.5818  161.3480 O.2     1  UNL1       -0.2707
     21 C         140.3817  145.2166  159.4420 C.3     1  UNL1        0.2898
     22 O         141.4436  144.2648  158.9767 O.3     1  UNL1       -0.4628
     23 H         141.2906  145.3631  162.8038 H       1  UNL1        0.1565
     24 C         140.7423  137.3474  164.3915 C.3     1  UNL1        0.0320
     25 C         139.4355  138.0232  164.6844 C.3     1  UNL1        0.0327
     26 C         140.1889  142.3546  165.6440 C.ar    1  UNL1        0.2249
     27 C         139.6765  143.4259  164.7276 C.ar    1  UNL1        0.0593
     28 C         138.9130  143.0534  163.4914 C.ar    1  UNL1        0.0254
     29 C         138.6619  141.6096  163.1716 C.ar    1  UNL1        0.0990
     30 N         137.8984  141.2371  161.9352 N.ar    1  UNL1       -0.2400
     31 C         137.6473  139.7932  161.6154 C.ar    1  UNL1        0.1281
     32 C         138.1597  138.7219  162.5318 C.ar    1  UNL1        0.1566
     33 F         137.9086  137.2781  162.2120 F       1  UNL1       -0.2028
     34 C         138.9232  139.0944  163.7680 C.ar    1  UNL1        0.0261
     35 C         139.1743  140.5383  164.0879 C.ar    1  UNL1        0.1002
     36 N         139.9378  140.9108  165.3241 N.ar    1  UNL1       -0.2104
     37 O         140.9524  142.7271  166.8803 O.3     1  UNL1       -0.4602
     38 C         142.0824  141.8615  167.3532 C.3     1  UNL1        0.2075
     39 C         141.0077  140.2408  169.5016 C.3     1  UNL1        0.1028
     40 C         142.2228  139.5002  169.0271 C.3     1  UNL1        0.0155
     41 C         141.8321  140.7945  168.3774 C.3     1  UNL1        0.0549
     42 C         139.8303  140.3486  170.4246 C.2     1  UNL1        0.3167
     43 O         139.4480  139.1858  171.2916 O.2     1  UNL1       -0.2501
     44 C         139.7352  142.9355  170.6460 C.3     1  UNL1        0.2556
     45 O         139.0351  141.6193  170.4806 O.3     1  UNL1       -0.4444
@<TRIPOS>BOND
     1    44    45    1
     2    45    42    1
     3    42    43    2
     4    39    42    1
     5    39    40    1
     6    40    41    1
     7    41    38    1
     8    38    37    1
     9    37    26    1
    10    26    27   ar
    11    27    28   ar
    12    28    29   ar
    13    29    30   ar
    14    30    31   ar
    15    31    32   ar
    16    32    33    1
    17    32    34   ar
    18    34    25    1
    19    25    24    1
    20    24     1    1
    21     1     2    1
    22     2     3    1
    23     3     4    1
    24     4     9    1
    25     9    11    1
    26    11    12    1
    27    12    13   ar
    28    13    14   ar
    29    14    15   ar
    30    15    16   ar
    31    16    17   ar
    32    16    18    1
    33    18    19   am
    34    19    20    2
    35    19    21    1
    36    21    22    1
    37     4     5    1
    38     5     6    1
    39     4     7    1
    40     7     8    1
    41    34    35   ar
    42    35    36   ar
    43    41    39    1
    44    36    26   ar
    45    35    29   ar
    46     6     1    1
    47     8     1    1
    48    17    12   ar
    49    22    15    1
    50     9    10    1
    51    18    23    1
@<TRIPOS>MOLECULE
*****
 45 51 0 0 0
SMALL
GASTEIGER

@<TRIPOS>ATOM
      1 C         138.3940  139.9785  165.0430 C.3     1  UNL1        0.0932
      2 C         139.2584  140.8071  165.9465 C.3     1  UNL1        0.0286
      3 C         139.3162  142.2957  165.7712 C.3     1  UNL1        0.0193
      4 C         138.5097  142.9557  164.6924 C.3     1  UNL1        0.0700
      5 C         137.6453  142.1271  163.7889 C.3     1  UNL1        0.0193
      6 C         137.5875  140.6385  163.9642 C.3     1  UNL1        0.0286
      7 C         138.4455  142.1368  164.7499 C.3     1  UNL1        0.1562
      8 O         138.3933  140.7908  164.9085 O.3     1  UNL1       -0.3572
      9 N         138.5675  144.4443  164.5171 N.3     1  UNL1       -0.2926
     10 H         139.0574  144.8177  165.3300 H       1  UNL1        0.1236
     11 C         139.2286  145.0316  163.3055 C.3     1  UNL1        0.1152
     12 C         140.6269  144.6267  162.9436 C.ar    1  UNL1        0.0765
     13 C         141.7905  145.1808  163.7110 C.ar    1  UNL1        0.0193
     14 C         143.1887  144.7758  163.3492 C.ar    1  UNL1        0.0411
     15 C         143.4233  143.8168  162.2199 C.ar    1  UNL1        0.1708
     16 C         142.2597  143.2627  161.4525 C.ar    1  UNL1        0.1682
     17 N         140.8615  143.6677  161.8144 N.ar    1  UNL1       -0.2304
     18 N         142.4943  142.3037  160.3232 N.am    1  UNL1       -0.2639
     19 C         143.8925  141.8988  159.9614 C.2     1  UNL1        0.2718
     20 O         144.1271  140.9397  158.8321 O.2     1  UNL1       -0.2707
     21 C         145.0562  142.4528  160.7288 C.3     1  UNL1        0.2898
     22 O         144.8216  143.4119  161.8580 O.3     1  UNL1       -0.4628
     23 H         141.7305  141.9400  159.8196 H       1  UNL1        0.1565
     24 C         138.3362  138.4899  165.2183 C.3     1  UNL1        0.0320
     25 C         139.2216  137.6027  164.3943 C.3     1  UNL1        0.0327
     26 C         143.2291  139.0772  165.8141 C.ar    1  UNL1        0.2249
     27 C         144.1953  139.6801  164.8380 C.ar    1  UNL1        0.0593
     28 C         143.8257  139.7915  163.3886 C.ar    1  UNL1        0.0254
     29 C         142.4898  139.3000  162.9153 C.ar    1  UNL1        0.0990
     30 N         142.1202  139.4114  161.4657 N.ar    1  UNL1       -0.2400
     31 C         140.7844  138.9199  160.9924 C.ar    1  UNL1        0.1281
     32 C         139.8182  138.3170  161.9687 C.ar    1  UNL1        0.1566
     33 F         138.4824  137.8255  161.4954 F       1  UNL1       -0.2028
     34 C         140.1878  138.2056  163.4181 C.ar    1  UNL1        0.0261
     35 C         141.5236  138.6971  163.8914 C.ar    1  UNL1        0.1002
     36 N         141.8932  138.5857  165.3408 N.ar    1  UNL1       -0.2104
     37 O         143.5986  138.9658  167.2637 O.3     1  UNL1       -0.4602
     38 C         142.6362  139.4211  168.3202 C.3     1  UNL1        0.2075
     39 C         141.7156  142.0444  169.1376 C.3     1  UNL1        0.1028
     40 C         143.1567  142.2362  168.7686 C.3     1  UNL1        0.0155
     41 C         142.5290  140.8783  168.6594 C.3     1  UNL1        0.0549
     42 C         140.4139  142.6068  169.6267 C.2     1  UNL1        0.3167
     43 O         140.0509  144.0303  169.3237 O.2     1  UNL1       -0.2501
     44 C         139.0389  140.4167  169.8774 C.3     1  UNL1        0.2556
     45 O         139.4753  141.7457  170.4189 O.3     1  UNL1       -0.4444
@<TRIPOS>BOND
     1    44    45    1
     2    45    42    1
     3    42    43    2
     4    39    42    1
     5    39    40    1
     6    40    41    1
     7    41    38    1
     8    38    37    1
     9    37    26    1
    10    26    27   ar
    11    27    28   ar
    12    28    29   ar
    13    29    30   ar
    14    30    31   ar
    15    31    32   ar
    16    32    33    1
    17    32    34   ar
    18    34    25    1
    19    25    24    1
    20    24     1    1
    21     1     2    1
    22     2     3    1
    23     3     4    1
    24     4     9    1
    25     9    11    1
    26    11    12    1
    27    12    13   ar
    28    13    14   ar
    29    14    15   ar
    30    15    16   ar
    31    16    17   ar
    32    16    18    1
    33    18    19   am
    34    19    20    2
    35    19    21    1
    36    21    22    1
    37     4     5    1
    38     5     6    1
    39     4     7    1
    40     7     8    1
    41    34    35   ar
    42    35    36   ar
    43    41    39    1
    44    36    26   ar
    45    35    29   ar
    46     6     1    1
    47     8     1    1
    48    17    12   ar
    49    22    15    1
    50     9    10    1
    51    18    23    1
@<TRIPOS>MOLECULE
*****
 45 51 0 0 0
SMALL
GASTEIGER

@<TRIPOS>ATOM
      1 C         138.7359  143.2301  163.7804 C.3     1  UNL1        0.0932
      2 C         137.8721  142.1956  163.1220 C.3     1  UNL1        0.0286
      3 C         137.6854  140.8539  163.7663 C.3     1  UNL1        0.0193
      4 C         138.3625  140.5469  165.0691 C.3     1  UNL1        0.0700
      5 C         139.2263  141.5815  165.7276 C.3     1  UNL1        0.0193
      6 C         139.4130  142.9231  165.0832 C.3     1  UNL1        0.0286
      7 C         138.4947  141.2961  164.7542 C.3     1  UNL1        0.1562
      8 O         138.6635  142.5092  164.1715 O.3     1  UNL1       -0.3572
      9 N         138.1758  139.2053  165.7135 N.3     1  UNL1       -0.2926
     10 H         137.1863  138.9726  165.6279 H       1  UNL1        0.1236
     11 C         138.9445  138.0189  165.2119 C.3     1  UNL1        0.1152
     12 C         140.2565  138.2166  164.5122 C.ar    1  UNL1        0.0765
     13 C         141.4801  138.5781  165.3009 C.ar    1  UNL1        0.0193
     14 C         142.7921  138.7757  164.6012 C.ar    1  UNL1        0.0411
     15 C         142.8804  138.6119  163.1128 C.ar    1  UNL1        0.1708
     16 C         141.6568  138.2504  162.3241 C.ar    1  UNL1        0.1682
     17 N         140.3449  138.0528  163.0238 N.ar    1  UNL1       -0.2304
     18 N         141.7452  138.0866  160.8357 N.am    1  UNL1       -0.2639
     19 C         143.0572  138.2843  160.1359 C.2     1  UNL1        0.2718
     20 O         143.1455  138.1205  158.6475 O.2     1  UNL1       -0.2707
     21 C         144.2809  138.6458  160.9246 C.3     1  UNL1        0.2898
     22 O         144.1925  138.8096  162.4131 O.3     1  UNL1       -0.4628
     23 H         140.9421  137.8494  160.3180 H       1  UNL1        0.1565
     24 C         138.9226  144.5718  163.1361 C.3     1  UNL1        0.0320
     25 C         140.2938  145.1718  163.0369 C.3     1  UNL1        0.0327
     26 C         143.8201  142.9911  164.7860 C.ar    1  UNL1        0.2249
     27 C         144.8449  142.3744  163.8808 C.ar    1  UNL1        0.0593
     28 C         144.6942  142.4847  162.3925 C.ar    1  UNL1        0.0254
     29 C         143.5188  143.2116  161.8094 C.ar    1  UNL1        0.0990
     30 N         143.3682  143.3219  160.3210 N.ar    1  UNL1       -0.2400
     31 C         142.1927  144.0488  159.7380 C.ar    1  UNL1        0.1281
     32 C         141.1679  144.6654  160.6433 C.ar    1  UNL1        0.1566
     33 F         139.9925  145.3923  160.0603 F       1  UNL1       -0.2028
     34 C         141.3186  144.5552  162.1316 C.ar    1  UNL1        0.0261
     35 C         142.4940  143.8283  162.7147 C.ar    1  UNL1        0.1002
     36 N         142.6447  143.7180  164.2030 N.ar    1  UNL1       -0.2104
     37 O         143.9707  142.8809  166.2744 O.3     1  UNL1       -0.4602
     38 C         142.9937  142.0658  167.0688 C.3     1  UNL1        0.2075
     39 C         141.8198  142.7979  169.6150 C.3     1  UNL1        0.1028
     40 C         143.2632  142.5243  169.9174 C.3     1  UNL1        0.0155
     41 C         142.7514  142.3848  168.5144 C.3     1  UNL1        0.0549
     42 C         140.4485  143.1943  170.0759 C.2     1  UNL1        0.3167
     43 O         140.1141  144.6428  170.2757 O.2     1  UNL1       -0.2501
     44 C         139.7857  140.6907  170.2822 C.3     1  UNL1        0.2556
     45 O         139.4117  142.1423  170.3369 O.3     1  UNL1       -0.4444
@<TRIPOS>BOND
     1    44    45    1
     2    45    42    1
     3    42    43    2
     4    39    42    1
     5    39    40    1
     6    40    41    1
     7    41    38    1
     8    38    37    1
     9    37    26    1
    10    26    27   ar
    11    27    28   ar
    12    28    29   ar
    13    29    30   ar
    14    30    31   ar
    15    31    32   ar
    16    32    33    1
    17    32    34   ar
    18    34    25    1
    19    25    24    1
    20    24     1    1
    21     1     2    1
    22     2     3    1
    23     3     4    1
    24     4     9    1
    25     9    11    1
    26    11    12    1
    27    12    13   ar
    28    13    14   ar
    29    14    15   ar
    30    15    16   ar
    31    16    17   ar
    32    16    18    1
    33    18    19   am
    34    19    20    2
    35    19    21    1
    36    21    22    1
    37     4     5    1
    38     5     6    1
    39     4     7    1
    40     7     8    1
    41    34    35   ar
    42    35    36   ar
    43    41    39    1
    44    36    26   ar
    45    35    29   ar
    46     6     1    1
    47     8     1    1
    48    17    12   ar
    49    22    15    1
    50     9    10    1
    51    18    23    1
@<TRIPOS>MOLECULE
*****
 45 51 0 0 0
SMALL
GASTEIGER

@<TRIPOS>ATOM
      1 C         142.1627  138.0911  163.6217 C.3     1  UNL1        0.0932
      2 C         142.3067  138.7018  162.2593 C.3     1  UNL1        0.0286
      3 C         143.4513  139.6270  161.9692 C.3     1  UNL1        0.0193
      4 C         144.4517  139.9415  163.0416 C.3     1  UNL1        0.0700
      5 C         144.3077  139.3308  164.4041 C.3     1  UNL1        0.0193
      6 C         143.1632  138.4057  164.6942 C.3     1  UNL1        0.0286
      7 C         143.8413  139.4289  163.2479 C.3     1  UNL1        0.1562
      8 O         142.8064  138.5923  163.5101 O.3     1  UNL1       -0.3572
      9 N         145.5962  140.8667  162.7516 N.3     1  UNL1       -0.2926
     10 H         145.6718  140.9323  161.7365 H       1  UNL1        0.1236
     11 C         145.5761  142.2719  163.2761 C.3     1  UNL1        0.1152
     12 C         144.3483  143.1173  163.1091 C.ar    1  UNL1        0.0765
     13 C         143.6884  143.7268  164.3103 C.ar    1  UNL1        0.0193
     14 C         142.4606  144.5722  164.1434 C.ar    1  UNL1        0.0411
     15 C         141.8927  144.8079  162.7752 C.ar    1  UNL1        0.1708
     16 C         142.5526  144.1984  161.5740 C.ar    1  UNL1        0.1682
     17 N         143.7804  143.3530  161.7410 N.ar    1  UNL1       -0.2304
     18 N         141.9847  144.4342  160.2058 N.am    1  UNL1       -0.2639
     19 C         140.7569  145.2795  160.0389 C.2     1  UNL1        0.2718
     20 O         140.1891  145.5153  158.6707 O.2     1  UNL1       -0.2707
     21 C         140.0970  145.8891  161.2401 C.3     1  UNL1        0.2898
     22 O         140.6649  145.6533  162.6083 O.3     1  UNL1       -0.4628
     23 H         142.4178  144.0341  159.4174 H       1  UNL1        0.1565
     24 C         141.0182  137.1659  163.9118 C.3     1  UNL1        0.0320
     25 C         139.8113  137.6726  164.6443 C.3     1  UNL1        0.0327
     26 C         141.3997  141.0898  167.1039 C.ar    1  UNL1        0.2249
     27 C         140.9043  142.4842  166.8588 C.ar    1  UNL1        0.0593
     28 C         139.8794  142.7395  165.7938 C.ar    1  UNL1        0.0254
     29 C         139.3499  141.6005  164.9739 C.ar    1  UNL1        0.0990
     30 N         138.3249  141.8559  163.9088 N.ar    1  UNL1       -0.2400
     31 C         137.7954  140.7169  163.0890 C.ar    1  UNL1        0.1281
     32 C         138.2909  139.3224  163.3341 C.ar    1  UNL1        0.1566
     33 F         137.7614  138.1833  162.5143 F       1  UNL1       -0.2028
     34 C         139.3158  139.0670  164.3992 C.ar    1  UNL1        0.0261
     35 C         139.8453  140.2061  165.2190 C.ar    1  UNL1        0.1002
     36 N         140.8702  139.9507  166.2841 N.ar    1  UNL1       -0.2104
     37 O         142.4247  140.8344  168.1690 O.3     1  UNL1       -0.4602
     38 C         142.0282  140.8694  169.6152 C.3     1  UNL1        0.2075
     39 C         139.1729  140.9167  170.1074 C.3     1  UNL1        0.1028
     40 C         139.6674  142.2581  170.5615 C.3     1  UNL1        0.0155
     41 C         140.6305  141.2542  170.0007 C.3     1  UNL1        0.0549
     42 C         138.0458  139.9475  169.9069 C.2     1  UNL1        0.3167
     43 O         137.9724  139.1324  168.6499 O.2     1  UNL1       -0.2501
     44 C         136.3220  138.4669  171.1664 C.3     1  UNL1        0.2556
     45 O         136.9922  139.7934  170.9633 O.3     1  UNL1       -0.4444
@<TRIPOS>BOND
     1    44    45    1
     2    45    42    1
     3    42    43    2
     4    39    42    1
     5    39    40    1
     6    40    41    1
     7    41    38    1
     8    38    37    1
     9    37    26    1
    10    26    27   ar
    11    27    28   ar
    12    28    29   ar
    13    29    30   ar
    14    30    31   ar
    15    31    32   ar
    16    32    33    1
    17    32    34   ar
    18    34    25    1
    19    25    24    1
    20    24     1    1
    21     1     2    1
    22     2     3    1
    23     3     4    1
    24     4     9    1
    25     9    11    1
    26    11    12    1
    27    12    13   ar
    28    13    14   ar
    29    14    15   ar
    30    15    16   ar
    31    16    17   ar
    32    16    18    1
    33    18    19   am
    34    19    20    2
    35    19    21    1
    36    21    22    1
    37     4     5    1
    38     5     6    1
    39     4     7    1
    40     7     8    1
    41    34    35   ar
    42    35    36   ar
    43    41    39    1
    44    36    26   ar
    45    35    29   ar
    46     6     1    1
    47     8     1    1
    48    17    12   ar
    49    22    15    1
    50     9    10    1
    51    18    23    1
@<TRIPOS>MOLECULE
*****
 45 51 0 0 0
SMALL
GASTEIGER

@<TRIPOS>ATOM
      1 C         139.7618  143.7611  163.7512 C.3     1  UNL1        0.0932
      2 C         140.7472  144.2139  162.7150 C.3     1  UNL1        0.0286
      3 C         142.2167  144.1877  163.0153 C.3     1  UNL1        0.0193
      4 C         142.7006  143.7087  164.3518 C.3     1  UNL1        0.0700
      5 C         141.7151  143.2559  165.3881 C.3     1  UNL1        0.0193
      6 C         140.2457  143.2821  165.0878 C.3     1  UNL1        0.0286
      7 C         141.8857  143.7050  164.2334 C.3     1  UNL1        0.1562
      8 O         140.5571  143.7287  163.9618 O.3     1  UNL1       -0.3572
      9 N         144.1700  143.6825  164.6521 N.3     1  UNL1       -0.2926
     10 H         144.2811  144.0198  165.6083 H       1  UNL1        0.1236
     11 C         144.9322  142.3942  164.5560 C.3     1  UNL1        0.1152
     12 C         144.3480  141.2309  163.8105 C.ar    1  UNL1        0.0765
     13 C         143.7035  140.1050  164.5634 C.ar    1  UNL1        0.0193
     14 C         143.1194  138.9418  163.8180 C.ar    1  UNL1        0.0411
     15 C         143.1798  138.9045  162.3197 C.ar    1  UNL1        0.1708
     16 C         143.8242  140.0305  161.5668 C.ar    1  UNL1        0.1682
     17 N         144.4084  141.1937  162.3122 N.ar    1  UNL1       -0.2304
     18 N         143.8846  139.9932  160.0684 N.am    1  UNL1       -0.2639
     19 C         143.3004  138.8300  159.3230 C.2     1  UNL1        0.2718
     20 O         143.3608  138.7927  157.8247 O.2     1  UNL1       -0.2707
     21 C         142.6559  137.7040  160.0759 C.3     1  UNL1        0.2898
     22 O         142.5956  137.7412  161.5742 O.3     1  UNL1       -0.4628
     23 H         144.3076  140.7322  159.5743 H       1  UNL1        0.1565
     24 C         138.2923  143.7873  163.4510 C.3     1  UNL1        0.0320
     25 C         137.5222  142.5033  163.3611 C.3     1  UNL1        0.0327
     26 C         138.6497  138.8995  165.8088 C.ar    1  UNL1        0.2249
     27 C         139.2620  137.7027  165.1435 C.ar    1  UNL1        0.0593
     28 C         139.4985  137.7071  163.6623 C.ar    1  UNL1        0.0254
     29 C         139.1227  138.9084  162.8464 C.ar    1  UNL1        0.0990
     30 N         139.3593  138.9128  161.3651 N.ar    1  UNL1       -0.2400
     31 C         138.9834  140.1141  160.5492 C.ar    1  UNL1        0.1281
     32 C         138.3711  141.3109  161.2146 C.ar    1  UNL1        0.1566
     33 F         137.9952  142.5122  160.3987 F       1  UNL1       -0.2028
     34 C         138.1345  141.3065  162.6958 C.ar    1  UNL1        0.0261
     35 C         138.5104  140.1052  163.5117 C.ar    1  UNL1        0.1002
     36 N         138.2738  140.1007  164.9929 N.ar    1  UNL1       -0.2104
     37 O         138.4131  138.8950  167.2901 O.3     1  UNL1       -0.4602
     38 C         139.0706  139.9270  168.1576 C.3     1  UNL1        0.2075
     39 C         141.7695  140.0150  169.2090 C.3     1  UNL1        0.1028
     40 C         141.9351  139.8398  167.7286 C.3     1  UNL1        0.0155
     41 C         140.5613  139.9272  168.3244 C.3     1  UNL1        0.0549
     42 C         142.3714  140.1669  170.5745 C.2     1  UNL1        0.3167
     43 O         143.6607  139.4761  170.9068 O.2     1  UNL1       -0.2501
     44 C         140.7788  142.1275  171.1825 C.3     1  UNL1        0.2556
     45 O         141.6840  141.0095  171.6077 O.3     1  UNL1       -0.4444
@<TRIPOS>BOND
     1    44    45    1
     2    45    42    1
     3    42    43    2
     4    39    42    1
     5    39    40    1
     6    40    41    1
     7    41    38    1
     8    38    37    1
     9    37    26    1
    10    26    27   ar
    11    27    28   ar
    12    28    29   ar
    13    29    30   ar
    14    30    31   ar
    15    31    32   ar
    16    32    33    1
    17    32    34   ar
    18    34    25    1
    19    25    24    1
    20    24     1    1
    21     1     2    1
    22     2     3    1
    23     3     4    1
    24     4     9    1
    25     9    11    1
    26    11    12    1
    27    12    13   ar
    28    13    14   ar
    29    14    15   ar
    30    15    16   ar
    31    16    17   ar
    32    16    18    1
    33    18    19   am
    34    19    20    2
    35    19    21    1
    36    21    22    1
    37     4     5    1
    38     5     6    1
    39     4     7    1
    40     7     8    1
    41    34    35   ar
    42    35    36   ar
    43    41    39    1
    44    36    26   ar
    45    35    29   ar
    46     6     1    1
    47     8     1    1
    48    17    12   ar
    49    22    15    1
    50     9    10    1
    51    18    23    1
@<TRIPOS>MOLECULE
*****
 45 51 0 0 0
SMALL
GASTEIGER

@<TRIPOS>ATOM
      1 C         143.3620  143.8971  163.7295 C.3     1  UNL1        0.0932
      2 C         142.5206  143.3300  164.8342 C.3     1  UNL1        0.0286
      3 C         141.0795  143.7275  164.9590 C.3     1  UNL1        0.0193
      4 C         140.4801  144.6923  163.9793 C.3     1  UNL1        0.0700
      5 C         141.3217  145.2595  162.8746 C.3     1  UNL1        0.0193
      6 C         142.7626  144.8619  162.7498 C.3     1  UNL1        0.0286
      7 C         141.2743  144.5042  163.8704 C.3     1  UNL1        0.1562
      8 O         142.5772  144.1447  163.7575 O.3     1  UNL1       -0.3572
      9 N         139.0392  145.0899  164.1041 N.3     1  UNL1       -0.2926
     10 H         138.9923  146.0908  163.9133 H       1  UNL1        0.1236
     11 C         138.0030  144.4352  163.2395 C.3     1  UNL1        0.1152
     12 C         138.1136  142.9759  162.9106 C.ar    1  UNL1        0.0765
     13 C         138.1153  142.5277  161.4792 C.ar    1  UNL1        0.0193
     14 C         138.2260  141.0684  161.1504 C.ar    1  UNL1        0.0411
     15 C         138.3350  140.0573  162.2530 C.ar    1  UNL1        0.1708
     16 C         138.3334  140.5055  163.6844 C.ar    1  UNL1        0.1682
     17 N         138.2227  141.9648  164.0133 N.ar    1  UNL1       -0.2304
     18 N         138.4424  139.4944  164.7871 N.am    1  UNL1       -0.2639
     19 C         138.5531  138.0351  164.4583 C.2     1  UNL1        0.2718
     20 O         138.6622  137.0240  165.5609 O.2     1  UNL1       -0.2707
     21 C         138.5547  137.5868  163.0267 C.3     1  UNL1        0.2898
     22 O         138.4457  138.5979  161.9241 O.3     1  UNL1       -0.4628
     23 H         138.4413  139.7886  165.7266 H       1  UNL1        0.1565
     24 C         144.8030  143.4996  163.6047 C.3     1  UNL1        0.0320
     25 C         145.1798  142.0482  163.5640 C.3     1  UNL1        0.0327
     26 C         143.1108  138.7978  165.8887 C.ar    1  UNL1        0.2249
     27 C         142.2288  137.8136  165.1794 C.ar    1  UNL1        0.0593
     28 C         142.0364  137.9128  163.6951 C.ar    1  UNL1        0.0254
     29 C         142.7261  138.9962  162.9202 C.ar    1  UNL1        0.0990
     30 N         142.5337  139.0954  161.4358 N.ar    1  UNL1       -0.2400
     31 C         143.2234  140.1789  160.6609 C.ar    1  UNL1        0.1281
     32 C         144.1054  141.1632  161.3704 C.ar    1  UNL1        0.1566
     33 F         144.7951  142.2466  160.5955 F       1  UNL1       -0.2028
     34 C         144.2978  141.0640  162.8547 C.ar    1  UNL1        0.0261
     35 C         143.6081  139.9805  163.6296 C.ar    1  UNL1        0.1002
     36 N         143.8004  139.8813  165.1138 N.ar    1  UNL1       -0.2104
     37 O         143.3032  138.6986  167.3731 O.3     1  UNL1       -0.4602
     38 C         142.4822  139.5514  168.2944 C.3     1  UNL1        0.2075
     39 C         142.7687  142.2741  169.2442 C.3     1  UNL1        0.1028
     40 C         143.3201  142.2895  167.8493 C.3     1  UNL1        0.0155
     41 C         142.7835  141.0146  168.4296 C.3     1  UNL1        0.0549
     42 C         142.4419  142.9924  170.5198 C.2     1  UNL1        0.3167
     43 O         143.4155  143.9767  171.0969 O.2     1  UNL1       -0.2501
     44 C         139.8840  142.5481  170.4200 C.3     1  UNL1        0.2556
     45 O         141.1413  142.7263  171.2183 O.3     1  UNL1       -0.4444
@<TRIPOS>BOND
     1    44    45    1
     2    45    42    1
     3    42    43    2
     4    39    42    1
     5    39    40    1
     6    40    41    1
     7    41    38    1
     8    38    37    1
     9    37    26    1
    10    26    27   ar
    11    27    28   ar
    12    28    29   ar
    13    29    30   ar
    14    30    31   ar
    15    31    32   ar
    16    32    33    1
    17    32    34   ar
    18    34    25    1
    19    25    24    1
    20    24     1    1
    21     1     2    1
    22     2     3    1
    23     3     4    1
    24     4     9    1
    25     9    11    1
    26    11    12    1
    27    12    13   ar
    28    13    14   ar
    29    14    15   ar
    30    15    16   ar
    31    16    17   ar
    32    16    18    1
    33    18    19   am
    34    19    20    2
    35    19    21    1
    36    21    22    1
    37     4     5    1
    38     5     6    1
    39     4     7    1
    40     7     8    1
    41    34    35   ar
    42    35    36   ar
    43    41    39    1
    44    36    26   ar
    45    35    29   ar
    46     6     1    1
    47     8     1    1
    48    17    12   ar
    49    22    15    1
    50     9    10    1
    51    18    23    1
