@<TRIPOS>MOLECULE
*****
 29 32 0 0 0
SMALL
GASTEIGER

@<TRIPOS>ATOM
      1 C         142.0760  142.1465  166.8895 C.3     1  UNL1        0.0037
      2 C         141.0390  141.4998  167.7592 C.3     1  UNL1        0.0390
      3 C         141.9840  142.3976  168.5014 C.3     1  UNL1        0.0113
      4 C         141.8378  142.5797  169.9831 C.3     1  UNL1        0.0646
      5 C         140.7466  141.8639  170.7226 C.2     1  UNL1        0.1507
      6 O         140.6004  142.0460  172.2044 O.2     1  UNL1       -0.2961
      7 C         139.8016  140.9660  169.9805 C.3     1  UNL1        0.0647
      8 C         139.9478  140.7840  168.4988 C.3     1  UNL1        0.0122
      9 C         139.1719  139.9698  167.5062 C.3     1  UNL1        0.0202
     10 C         139.7836  140.1824  166.1532 C.3     1  UNL1        0.0978
     11 C         140.9375  141.1280  166.3096 C.3     1  UNL1        0.1801
     12 N         139.3224  139.5590  164.8692 N.3     1  UNL1       -0.2697
     13 C         139.7516  138.1659  164.5153 C.3     1  UNL1        0.0722
     14 C         139.2904  137.5425  163.2313 C.3     1  UNL1        0.0187
     15 C         138.4000  138.3120  162.3013 C.3     1  UNL1        0.0183
     16 C         137.9709  139.7050  162.6552 C.3     1  UNL1        0.0670
     17 N         137.0805  140.4746  161.7251 N.3     1  UNL1       -0.3211
     18 C         138.4321  140.3285  163.9391 C.3     1  UNL1        0.0878
     19 H         136.8906  141.3955  162.1205 H       1  UNL1        0.1189
     20 H         136.2026  139.9706  161.6001 H       1  UNL1        0.1189
     21 O         141.8328  141.6161  165.2095 O.3     1  UNL1       -0.4778
     22 C         142.0872  140.7518  164.0103 C.ar    1  UNL1        0.1385
     23 C         141.5070  141.1267  162.6788 C.ar    1  UNL1        0.0376
     24 C         141.7614  140.2623  161.4796 C.ar    1  UNL1        0.0134
     25 C         142.5960  139.0230  161.6118 C.ar    1  UNL1        0.0686
     26 C         143.1762  138.6480  162.9433 C.ar    1  UNL1        0.0134
     27 C         142.9218  139.5124  164.1425 C.ar    1  UNL1        0.0376
     28 C         142.8504  138.1586  160.4127 C.1     1  UNL1        0.1004
     29 N         143.1048  137.2942  159.2135 N.1     1  UNL1       -0.1908
@<TRIPOS>BOND
     1     2     1    1
     2     2     3    1
     3     3     4    1
     4     4     5    1
     5     5     6    2
     6     5     7    1
     7     8     7    1
     8     8     9    1
     9     9    10    1
    10    10    12    1
    11    12    13    1
    12    13    14    1
    13    14    15    1
    14    15    16    1
    15    16    17    1
    16    16    18    1
    17    10    11    1
    18    11    21    1
    19    21    22    1
    20    22    23   ar
    21    23    24   ar
    22    24    25   ar
    23    25    28    1
    24    28    29    3
    25    25    26   ar
    26    26    27   ar
    27     8     2    1
    28    18    12    1
    29    27    22   ar
    30    11     2    1
    31    17    19    1
    32    17    20    1
@<TRIPOS>MOLECULE
*****
 29 32 0 0 0
SMALL
GASTEIGER

@<TRIPOS>ATOM
      1 C         138.8521  139.4666  167.3400 C.3     1  UNL1        0.0037
      2 C         139.9849  140.3601  167.7505 C.3     1  UNL1        0.0390
      3 C         139.0173  140.0549  168.8553 C.3     1  UNL1        0.0113
      4 C         139.2342  140.6318  170.2229 C.3     1  UNL1        0.0646
      5 C         140.4188  141.5137  170.4856 C.2     1  UNL1        0.1507
      6 O         140.6357  142.0905  171.8532 O.2     1  UNL1       -0.2961
      7 C         141.3864  141.8188  169.3808 C.3     1  UNL1        0.0647
      8 C         141.1694  141.2420  168.0133 C.3     1  UNL1        0.0122
      9 C         141.9476  141.3653  166.7369 C.3     1  UNL1        0.0202
     10 C         141.2441  140.5597  165.6853 C.3     1  UNL1        0.0978
     11 C         140.0311  139.9384  166.3118 C.3     1  UNL1        0.1801
     12 N         141.6775  140.4028  164.2579 N.3     1  UNL1       -0.2697
     13 C         141.4426  141.5126  163.2765 C.3     1  UNL1        0.0722
     14 C         141.8760  141.3557  161.8490 C.3     1  UNL1        0.0187
     15 C         142.5443  140.0891  161.4030 C.3     1  UNL1        0.0183
     16 C         142.7792  138.9793  162.3844 C.3     1  UNL1        0.0670
     17 N         143.4475  137.7126  161.9384 N.3     1  UNL1       -0.3211
     18 C         142.3458  139.1361  163.8118 C.3     1  UNL1        0.0878
     19 H         143.5254  137.0727  162.7289 H       1  UNL1        0.1189
     20 H         144.3786  137.9269  161.5813 H       1  UNL1        0.1189
     21 O         139.0384  139.0511  165.6208 O.3     1  UNL1       -0.4778
     22 C         138.6954  139.2888  164.1801 C.ar    1  UNL1        0.1385
     23 C         138.0238  140.5658  163.7698 C.ar    1  UNL1        0.0376
     24 C         137.6808  140.8034  162.3290 C.ar    1  UNL1        0.0134
     25 C         138.0093  139.7641  161.2985 C.ar    1  UNL1        0.0686
     26 C         138.6809  138.4871  161.7088 C.ar    1  UNL1        0.0134
     27 C         139.0239  138.2495  163.1496 C.ar    1  UNL1        0.0376
     28 C         137.6663  140.0018  159.8577 C.1     1  UNL1        0.1004
     29 N         137.3233  140.2394  158.4169 N.1     1  UNL1       -0.1908
@<TRIPOS>BOND
     1     2     1    1
     2     2     3    1
     3     3     4    1
     4     4     5    1
     5     5     6    2
     6     5     7    1
     7     8     7    1
     8     8     9    1
     9     9    10    1
    10    10    12    1
    11    12    13    1
    12    13    14    1
    13    14    15    1
    14    15    16    1
    15    16    17    1
    16    16    18    1
    17    10    11    1
    18    11    21    1
    19    21    22    1
    20    22    23   ar
    21    23    24   ar
    22    24    25   ar
    23    25    28    1
    24    28    29    3
    25    25    26   ar
    26    26    27   ar
    27     8     2    1
    28    18    12    1
    29    27    22   ar
    30    11     2    1
    31    17    19    1
    32    17    20    1
@<TRIPOS>MOLECULE
*****
 29 32 0 0 0
SMALL
GASTEIGER

@<TRIPOS>ATOM
      1 C         139.5105  139.5551  167.3389 C.3     1  UNL1        0.0037
      2 C         139.9224  140.9337  167.7629 C.3     1  UNL1        0.0390
      3 C         139.6852  139.9898  168.9042 C.3     1  UNL1        0.0113
      4 C         139.8656  140.4607  170.3168 C.3     1  UNL1        0.0646
      5 C         140.2831  141.8756  170.5882 C.2     1  UNL1        0.1507
      6 O         140.4635  142.3465  172.0009 O.2     1  UNL1       -0.2961
      7 C         140.5203  142.8196  169.4469 C.3     1  UNL1        0.0647
      8 C         140.3399  142.3487  168.0342 C.3     1  UNL1        0.0122
      9 C         140.5002  143.0456  166.7157 C.3     1  UNL1        0.0202
     10 C         140.1816  142.0615  165.6294 C.3     1  UNL1        0.0978
     11 C         139.8246  140.7563  166.2766 C.3     1  UNL1        0.1801
     12 N         140.2144  142.3346  164.1548 N.3     1  UNL1       -0.2697
     13 C         141.5186  142.3007  163.4146 C.3     1  UNL1        0.0722
     14 C         141.5514  142.5738  161.9401 C.3     1  UNL1        0.0187
     15 C         140.2800  142.8809  161.2057 C.3     1  UNL1        0.0183
     16 C         138.9759  142.9148  161.9459 C.3     1  UNL1        0.0670
     17 N         137.7044  143.2218  161.2116 N.3     1  UNL1       -0.3211
     18 C         138.9431  142.6417  163.4205 C.3     1  UNL1        0.0878
     19 H         136.9214  143.2029  161.8649 H       1  UNL1        0.1189
     20 H         137.5559  142.5241  160.4825 H       1  UNL1        0.1189
     21 O         139.4376  139.4950  165.5629 O.3     1  UNL1       -0.4778
     22 C         140.1726  139.0789  164.3234 C.ar    1  UNL1        0.1385
     23 C         139.4444  138.9851  163.0154 C.ar    1  UNL1        0.0376
     24 C         140.1796  138.5690  161.7759 C.ar    1  UNL1        0.0134
     25 C         141.6429  138.2465  161.8443 C.ar    1  UNL1        0.0686
     26 C         142.3711  138.3402  163.1523 C.ar    1  UNL1        0.0134
     27 C         141.6360  138.7564  164.3918 C.ar    1  UNL1        0.0376
     28 C         142.3780  137.8304  160.6048 C.1     1  UNL1        0.1004
     29 N         143.1131  137.4142  159.3653 N.1     1  UNL1       -0.1908
@<TRIPOS>BOND
     1     2     1    1
     2     2     3    1
     3     3     4    1
     4     4     5    1
     5     5     6    2
     6     5     7    1
     7     8     7    1
     8     8     9    1
     9     9    10    1
    10    10    12    1
    11    12    13    1
    12    13    14    1
    13    14    15    1
    14    15    16    1
    15    16    17    1
    16    16    18    1
    17    10    11    1
    18    11    21    1
    19    21    22    1
    20    22    23   ar
    21    23    24   ar
    22    24    25   ar
    23    25    28    1
    24    28    29    3
    25    25    26   ar
    26    26    27   ar
    27     8     2    1
    28    18    12    1
    29    27    22   ar
    30    11     2    1
    31    17    19    1
    32    17    20    1
@<TRIPOS>MOLECULE
*****
 29 32 0 0 0
SMALL
GASTEIGER

@<TRIPOS>ATOM
      1 C         142.3922  142.2056  167.1848 C.3     1  UNL1        0.0037
      2 C         141.2895  141.5443  167.9573 C.3     1  UNL1        0.0390
      3 C         142.1349  142.4746  168.7757 C.3     1  UNL1        0.0113
      4 C         141.8382  142.6715  170.2328 C.3     1  UNL1        0.0646
      5 C         140.6961  141.9382  170.8714 C.2     1  UNL1        0.1507
      6 O         140.3994  142.1352  172.3286 O.2     1  UNL1       -0.2961
      7 C         139.8507  141.0079  170.0530 C.3     1  UNL1        0.0647
      8 C         140.1474  140.8110  168.5959 C.3     1  UNL1        0.0122
      9 C         139.4932  139.9654  167.5437 C.3     1  UNL1        0.0202
     10 C         140.2309  140.1761  166.2548 C.3     1  UNL1        0.0978
     11 C         141.3411  141.1519  166.5104 C.3     1  UNL1        0.1801
     12 N         139.9141  139.5253  164.9410 N.3     1  UNL1       -0.2697
     13 C         138.6229  139.8343  164.2430 C.3     1  UNL1        0.0722
     14 C         138.3061  139.1835  162.9292 C.3     1  UNL1        0.0187
     15 C         139.2805  138.2237  162.3134 C.3     1  UNL1        0.0183
     16 C         140.5717  137.9147  163.0114 C.3     1  UNL1        0.0670
     17 N         141.5462  136.9548  162.3956 N.3     1  UNL1       -0.3211
     18 C         140.8885  138.5655  164.3252 C.3     1  UNL1        0.0878
     19 H         142.3623  136.8638  163.0007 H       1  UNL1        0.1189
     20 H         141.8372  137.3046  161.4827 H       1  UNL1        0.1189
     21 O         142.3294  141.6483  165.4970 O.3     1  UNL1       -0.4778
     22 C         141.8551  142.4240  164.3041 C.ar    1  UNL1        0.1385
     23 C         141.9245  141.8129  162.9360 C.ar    1  UNL1        0.0376
     24 C         141.4501  142.5887  161.7431 C.ar    1  UNL1        0.0134
     25 C         140.9063  143.9756  161.9182 C.ar    1  UNL1        0.0686
     26 C         140.8369  144.5868  163.2863 C.ar    1  UNL1        0.0134
     27 C         141.3113  143.8110  164.4792 C.ar    1  UNL1        0.0376
     28 C         140.4319  144.7514  160.7253 C.1     1  UNL1        0.1004
     29 N         139.9575  145.5272  159.5324 N.1     1  UNL1       -0.1908
@<TRIPOS>BOND
     1     2     1    1
     2     2     3    1
     3     3     4    1
     4     4     5    1
     5     5     6    2
     6     5     7    1
     7     8     7    1
     8     8     9    1
     9     9    10    1
    10    10    12    1
    11    12    13    1
    12    13    14    1
    13    14    15    1
    14    15    16    1
    15    16    17    1
    16    16    18    1
    17    10    11    1
    18    11    21    1
    19    21    22    1
    20    22    23   ar
    21    23    24   ar
    22    24    25   ar
    23    25    28    1
    24    28    29    3
    25    25    26   ar
    26    26    27   ar
    27     8     2    1
    28    18    12    1
    29    27    22   ar
    30    11     2    1
    31    17    19    1
    32    17    20    1
@<TRIPOS>MOLECULE
*****
 29 32 0 0 0
SMALL
GASTEIGER

@<TRIPOS>ATOM
      1 C         140.3573  143.0836  166.7463 C.3     1  UNL1        0.0037
      2 C         140.3083  141.9368  167.7120 C.3     1  UNL1        0.0390
      3 C         140.3608  143.2849  168.3677 C.3     1  UNL1        0.0113
      4 C         140.3609  143.3916  169.8639 C.3     1  UNL1        0.0646
      5 C         140.3084  142.1502  170.7043 C.2     1  UNL1        0.1507
      6 O         140.3085  142.2570  172.2006 O.2     1  UNL1       -0.2961
      7 C         140.2559  140.8022  170.0486 C.3     1  UNL1        0.0647
      8 C         140.2559  140.6955  168.5524 C.3     1  UNL1        0.0122
      9 C         140.2108  139.5131  167.6305 C.3     1  UNL1        0.0202
     10 C         140.2354  140.0237  166.2203 C.3     1  UNL1        0.0978
     11 C         140.2957  141.5216  166.2707 C.3     1  UNL1        0.1801
     12 N         140.2051  139.1838  164.9778 N.3     1  UNL1       -0.2697
     13 C         138.8982  138.6664  164.4540 C.3     1  UNL1        0.0722
     14 C         138.8679  137.8264  163.2116 C.3     1  UNL1        0.0187
     15 C         140.1444  137.5039  162.4930 C.3     1  UNL1        0.0183
     16 C         141.4512  138.0213  163.0168 C.3     1  UNL1        0.0670
     17 N         142.7278  137.6988  162.2982 N.3     1  UNL1       -0.3211
     18 C         141.4816  138.8612  164.2592 C.3     1  UNL1        0.0878
     19 H         143.5121  138.1281  162.7890 H       1  UNL1        0.1189
     20 H         142.6830  138.0617  161.3459 H       1  UNL1        0.1189
     21 O         140.3362  142.4427  165.0874 O.3     1  UNL1       -0.4778
     22 C         139.7645  142.0007  163.7730 C.ar    1  UNL1        0.1385
     23 C         140.6783  141.6807  162.6273 C.ar    1  UNL1        0.0376
     24 C         140.1066  141.2387  161.3128 C.ar    1  UNL1        0.0134
     25 C         138.6212  141.1168  161.1440 C.ar    1  UNL1        0.0686
     26 C         137.7073  141.4367  162.2897 C.ar    1  UNL1        0.0134
     27 C         138.2790  141.8787  163.6041 C.ar    1  UNL1        0.0376
     28 C         138.0494  140.6748  159.8296 C.1     1  UNL1        0.1004
     29 N         137.4777  140.2328  158.5151 N.1     1  UNL1       -0.1908
@<TRIPOS>BOND
     1     2     1    1
     2     2     3    1
     3     3     4    1
     4     4     5    1
     5     5     6    2
     6     5     7    1
     7     8     7    1
     8     8     9    1
     9     9    10    1
    10    10    12    1
    11    12    13    1
    12    13    14    1
    13    14    15    1
    14    15    16    1
    15    16    17    1
    16    16    18    1
    17    10    11    1
    18    11    21    1
    19    21    22    1
    20    22    23   ar
    21    23    24   ar
    22    24    25   ar
    23    25    28    1
    24    28    29    3
    25    25    26   ar
    26    26    27   ar
    27     8     2    1
    28    18    12    1
    29    27    22   ar
    30    11     2    1
    31    17    19    1
    32    17    20    1
@<TRIPOS>MOLECULE
*****
 29 32 0 0 0
SMALL
GASTEIGER

@<TRIPOS>ATOM
      1 C         140.4343  142.9595  166.7432 C.3     1  UNL1        0.0037
      2 C         141.0428  141.9875  167.7101 C.3     1  UNL1        0.0390
      3 C         140.2791  143.1008  168.3636 C.3     1  UNL1        0.0113
      4 C         140.1796  143.1653  169.8588 C.3     1  UNL1        0.0646
      5 C         140.8439  142.1165  170.7006 C.2     1  UNL1        0.1507
      6 O         140.7444  142.1810  172.1960 O.2     1  UNL1       -0.2961
      7 C         141.6077  141.0031  170.0472 C.3     1  UNL1        0.0647
      8 C         141.7071  140.9386  168.5519 C.3     1  UNL1        0.0122
      9 C         142.3864  139.9678  167.6321 C.3     1  UNL1        0.0202
     10 C         142.1420  140.4165  166.2218 C.3     1  UNL1        0.0978
     11 C         141.3116  141.6648  166.2701 C.3     1  UNL1        0.1801
     12 N         142.6404  139.7365  164.9812 N.3     1  UNL1       -0.2697
     13 C         144.0154  140.0365  164.4623 C.3     1  UNL1        0.0722
     14 C         144.5138  139.3565  163.2217 C.3     1  UNL1        0.0187
     15 C         143.6372  138.3764  162.5000 C.3     1  UNL1        0.0183
     16 C         142.2622  138.0764  163.0189 C.3     1  UNL1        0.0670
     17 N         141.3855  137.0962  162.2971 N.3     1  UNL1       -0.3211
     18 C         141.7638  138.7564  164.2595 C.3     1  UNL1        0.0878
     19 H         140.4933  137.0147  162.7848 H       1  UNL1        0.1189
     20 H         141.8434  136.1852  162.2715 H       1  UNL1        0.1189
     21 O         140.8338  142.4522  165.0861 O.3     1  UNL1       -0.4778
     22 C         141.6519  142.4879  163.8294 C.ar    1  UNL1        0.1385
     23 C         141.1763  141.7652  162.6040 C.ar    1  UNL1        0.0376
     24 C         141.9945  141.8009  161.3473 C.ar    1  UNL1        0.0134
     25 C         143.2882  142.5592  161.3159 C.ar    1  UNL1        0.0686
     26 C         143.7639  143.2819  162.5413 C.ar    1  UNL1        0.0134
     27 C         142.9457  143.2462  163.7980 C.ar    1  UNL1        0.0376
     28 C         144.1064  142.5949  160.0592 C.1     1  UNL1        0.1004
     29 N         144.9246  142.6306  158.8025 N.1     1  UNL1       -0.1908
@<TRIPOS>BOND
     1     2     1    1
     2     2     3    1
     3     3     4    1
     4     4     5    1
     5     5     6    2
     6     5     7    1
     7     8     7    1
     8     8     9    1
     9     9    10    1
    10    10    12    1
    11    12    13    1
    12    13    14    1
    13    14    15    1
    14    15    16    1
    15    16    17    1
    16    16    18    1
    17    10    11    1
    18    11    21    1
    19    21    22    1
    20    22    23   ar
    21    23    24   ar
    22    24    25   ar
    23    25    28    1
    24    28    29    3
    25    25    26   ar
    26    26    27   ar
    27     8     2    1
    28    18    12    1
    29    27    22   ar
    30    11     2    1
    31    17    19    1
    32    17    20    1
@<TRIPOS>MOLECULE
*****
 29 32 0 0 0
SMALL
GASTEIGER

@<TRIPOS>ATOM
      1 C         140.3706  143.2152  166.7866 C.3     1  UNL1        0.0037
      2 C         140.1809  142.0272  167.6825 C.3     1  UNL1        0.0390
      3 C         140.4567  143.3064  168.4157 C.3     1  UNL1        0.0113
      4 C         140.5211  143.3129  169.9143 C.3     1  UNL1        0.0646
      5 C         140.3097  142.0403  170.6797 C.2     1  UNL1        0.1507
      6 O         140.3741  142.0470  172.1783 O.2     1  UNL1       -0.2961
      7 C         140.0339  140.7612  169.9465 C.3     1  UNL1        0.0647
      8 C         139.9696  140.7546  168.4479 C.3     1  UNL1        0.0122
      9 C         139.7175  139.6553  167.4589 C.3     1  UNL1        0.0202
     10 C         139.7730  140.2485  166.0823 C.3     1  UNL1        0.0978
     11 C         140.0595  141.7144  166.2205 C.3     1  UNL1        0.1801
     12 N         139.5766  139.5062  164.7938 N.3     1  UNL1       -0.2697
     13 C         138.3106  139.6864  164.0098 C.3     1  UNL1        0.0722
     14 C         138.1142  138.9441  162.7212 C.3     1  UNL1        0.0187
     15 C         139.1839  138.0215  162.2167 C.3     1  UNL1        0.0183
     16 C         140.4499  137.8412  163.0006 C.3     1  UNL1        0.0670
     17 N         141.5196  136.9186  162.4961 N.3     1  UNL1       -0.3211
     18 C         140.6463  138.5836  164.2892 C.3     1  UNL1        0.0878
     19 H         142.3034  136.9175  163.1489 H       1  UNL1        0.1189
     20 H         141.8394  137.2368  161.5813 H       1  UNL1        0.1189
     21 O         140.1998  142.6953  165.0944 O.3     1  UNL1       -0.4778
     22 C         140.9506  142.3110  163.8541 C.ar    1  UNL1        0.1385
     23 C         142.3994  141.9326  163.9413 C.ar    1  UNL1        0.0376
     24 C         143.1501  141.5482  162.7008 C.ar    1  UNL1        0.0134
     25 C         142.4521  141.5423  161.3732 C.ar    1  UNL1        0.0686
     26 C         141.0032  141.9207  161.2860 C.ar    1  UNL1        0.0134
     27 C         140.2525  142.3050  162.5264 C.ar    1  UNL1        0.0376
     28 C         143.2028  141.1579  160.1328 C.1     1  UNL1        0.1004
     29 N         143.9535  140.7735  158.8924 N.1     1  UNL1       -0.1908
@<TRIPOS>BOND
     1     2     1    1
     2     2     3    1
     3     3     4    1
     4     4     5    1
     5     5     6    2
     6     5     7    1
     7     8     7    1
     8     8     9    1
     9     9    10    1
    10    10    12    1
    11    12    13    1
    12    13    14    1
    13    14    15    1
    14    15    16    1
    15    16    17    1
    16    16    18    1
    17    10    11    1
    18    11    21    1
    19    21    22    1
    20    22    23   ar
    21    23    24   ar
    22    24    25   ar
    23    25    28    1
    24    28    29    3
    25    25    26   ar
    26    26    27   ar
    27     8     2    1
    28    18    12    1
    29    27    22   ar
    30    11     2    1
    31    17    19    1
    32    17    20    1
@<TRIPOS>MOLECULE
*****
 29 32 0 0 0
SMALL
GASTEIGER

@<TRIPOS>ATOM
      1 C         142.7713  139.0575  167.4059 C.3     1  UNL1        0.0037
      2 C         141.6067  139.9094  167.8161 C.3     1  UNL1        0.0390
      3 C         142.5475  139.5812  168.9374 C.3     1  UNL1        0.0113
      4 C         142.2767  140.0981  170.3192 C.3     1  UNL1        0.0646
      5 C         141.0651  140.9432  170.5797 C.2     1  UNL1        0.1507
      6 O         140.7943  141.4601  171.9616 O.2     1  UNL1       -0.2961
      7 C         140.1243  141.2714  169.4585 C.3     1  UNL1        0.0647
      8 C         140.3951  140.7544  168.0767 C.3     1  UNL1        0.0122
      9 C         139.6528  140.9119  166.7828 C.3     1  UNL1        0.0202
     10 C         140.4057  140.1642  165.7225 C.3     1  UNL1        0.0978
     11 C         141.6132  139.5446  166.3612 C.3     1  UNL1        0.1801
     12 N         140.0188  140.0552  164.2774 N.3     1  UNL1       -0.2697
     13 C         140.4268  141.1256  163.3090 C.3     1  UNL1        0.0722
     14 C         140.0400  141.0166  161.8638 C.3     1  UNL1        0.0187
     15 C         139.2452  139.8372  161.3870 C.3     1  UNL1        0.0183
     16 C         138.8372  138.7668  162.3554 C.3     1  UNL1        0.0670
     17 N         138.0424  137.5874  161.8786 N.3     1  UNL1       -0.3211
     18 C         139.2241  138.8758  163.8006 C.3     1  UNL1        0.0878
     19 H         137.8544  136.9642  162.6640 H       1  UNL1        0.1189
     20 H         138.5724  137.0859  161.1659 H       1  UNL1        0.1189
     21 O         142.6460  138.7072  165.6668 O.3     1  UNL1       -0.4778
     22 C         142.9515  138.9424  164.2173 C.ar    1  UNL1        0.1385
     23 C         142.4682  137.9710  163.1816 C.ar    1  UNL1        0.0376
     24 C         142.7738  138.2063  161.7320 C.ar    1  UNL1        0.0134
     25 C         143.5627  139.4131  161.3181 C.ar    1  UNL1        0.0686
     26 C         144.0461  140.3846  162.3538 C.ar    1  UNL1        0.0134
     27 C         143.7405  140.1493  163.8033 C.ar    1  UNL1        0.0376
     28 C         143.8683  139.6484  159.8686 C.1     1  UNL1        0.1004
     29 N         144.1739  139.8837  158.4190 N.1     1  UNL1       -0.1908
@<TRIPOS>BOND
     1     2     1    1
     2     2     3    1
     3     3     4    1
     4     4     5    1
     5     5     6    2
     6     5     7    1
     7     8     7    1
     8     8     9    1
     9     9    10    1
    10    10    12    1
    11    12    13    1
    12    13    14    1
    13    14    15    1
    14    15    16    1
    15    16    17    1
    16    16    18    1
    17    10    11    1
    18    11    21    1
    19    21    22    1
    20    22    23   ar
    21    23    24   ar
    22    24    25   ar
    23    25    28    1
    24    28    29    3
    25    25    26   ar
    26    26    27   ar
    27     8     2    1
    28    18    12    1
    29    27    22   ar
    30    11     2    1
    31    17    19    1
    32    17    20    1
@<TRIPOS>MOLECULE
*****
 29 32 0 0 0
SMALL
GASTEIGER

@<TRIPOS>ATOM
      1 C         140.0200  140.3760  167.0854 C.3     1  UNL1        0.0037
      2 C         140.9743  141.1609  167.9359 C.3     1  UNL1        0.0390
      3 C         139.7456  140.7010  168.6629 C.3     1  UNL1        0.0113
      4 C         139.5621  141.0377  170.1130 C.3     1  UNL1        0.0646
      5 C         140.6073  141.8345  170.8361 C.2     1  UNL1        0.1507
      6 O         140.4238  142.1712  172.2863 O.2     1  UNL1       -0.2961
      7 C         141.8360  142.2944  170.1090 C.3     1  UNL1        0.0647
      8 C         142.0195  141.9576  168.6589 C.3     1  UNL1        0.0122
      9 C         143.1179  142.2714  167.6868 C.3     1  UNL1        0.0202
     10 C         142.7516  141.6686  166.3630 C.3     1  UNL1        0.0978
     11 C         141.4268  140.9823  166.5169 C.3     1  UNL1        0.1801
     12 N         143.5670  141.7397  165.1059 N.3     1  UNL1       -0.2697
     13 C         144.2936  140.5234  164.6135 C.3     1  UNL1        0.0722
     14 C         145.1090  140.5945  163.3564 C.3     1  UNL1        0.0187
     15 C         145.1977  141.8819  162.5918 C.3     1  UNL1        0.0183
     16 C         144.4711  143.0982  163.0843 C.3     1  UNL1        0.0670
     17 N         144.5598  144.3857  162.3197 N.3     1  UNL1       -0.3211
     18 C         143.6557  143.0271  164.3413 C.3     1  UNL1        0.0878
     19 H         144.0091  145.1014  162.7939 H       1  UNL1        0.1189
     20 H         144.1968  144.2468  161.3766 H       1  UNL1        0.1189
     21 O         140.6846  140.2465  165.4409 O.3     1  UNL1       -0.4778
     22 C         140.4003  140.9198  164.1310 C.ar    1  UNL1        0.1385
     23 C         140.9328  140.3356  162.8562 C.ar    1  UNL1        0.0376
     24 C         140.6485  141.0090  161.5464 C.ar    1  UNL1        0.0134
     25 C         139.8316  142.2666  161.5113 C.ar    1  UNL1        0.0686
     26 C         139.2991  142.8509  162.7861 C.ar    1  UNL1        0.0134
     27 C         139.5835  142.1775  164.0959 C.ar    1  UNL1        0.0376
     28 C         139.5473  142.9399  160.2014 C.1     1  UNL1        0.1004
     29 N         139.2629  143.6133  158.8916 N.1     1  UNL1       -0.1908
@<TRIPOS>BOND
     1     2     1    1
     2     2     3    1
     3     3     4    1
     4     4     5    1
     5     5     6    2
     6     5     7    1
     7     8     7    1
     8     8     9    1
     9     9    10    1
    10    10    12    1
    11    12    13    1
    12    13    14    1
    13    14    15    1
    14    15    16    1
    15    16    17    1
    16    16    18    1
    17    10    11    1
    18    11    21    1
    19    21    22    1
    20    22    23   ar
    21    23    24   ar
    22    24    25   ar
    23    25    28    1
    24    28    29    3
    25    25    26   ar
    26    26    27   ar
    27     8     2    1
    28    18    12    1
    29    27    22   ar
    30    11     2    1
    31    17    19    1
    32    17    20    1
