@<TRIPOS>MOLECULE
*****
 23 24 0 0 0
SMALL
GASTEIGER

@<TRIPOS>ATOM
      1 C         140.4816  144.5992  163.2314 C.ar    1  UNL1        0.1295
      2 N         140.9066  143.4102  164.0411 N.ar    1  UNL1       -0.2298
      3 C         140.0492  143.3563  165.2708 C.ar    1  UNL1        0.0997
      4 C         139.0943  144.5121  165.2211 C.ar    1  UNL1        0.0927
      5 N         139.3615  145.2802  163.9607 N.ar    1  UNL1       -0.3386
      6 H         138.8853  146.0892  163.6642 H       1  UNL1        0.1672
      7 C         142.1990  144.0585  162.1098 C.3     1  UNL1        0.0232
      8 C         141.0728  145.0313  161.9223 C.3     1  UNL1        0.0901
      9 C         139.9465  146.0042  161.7349 C.3     1  UNL1        0.0232
     10 N         141.6639  145.4635  160.6133 N.3     1  UNL1       -0.3177
     11 H         142.5200  144.9377  160.4367 H       1  UNL1        0.1191
     12 H         141.8783  146.4600  160.6495 H       1  UNL1        0.1191
     13 C         140.1322  142.3274  166.3592 C.ar    1  UNL1        0.0222
     14 C         139.4655  140.9952  166.1842 C.ar    1  UNL1        0.0017
     15 C         139.5485  139.9663  167.2725 C.ar    1  UNL1        0.0032
     16 C         140.2983  140.2696  168.5358 C.ar    1  UNL1        0.0372
     17 C         140.9650  141.6018  168.7107 C.ar    1  UNL1        0.1469
     18 C         140.8820  142.6307  167.6224 C.ar    1  UNL1        0.0387
     19 O         141.7148  141.9051  169.9740 O.3     1  UNL1       -0.4045
     20 C         143.1743  142.2464  169.9164 C.3     1  UNL1        0.5753
     21 F         144.6339  142.5877  169.8587 F       1  UNL1       -0.1328
     22 F         142.8902  143.5702  170.5620 F       1  UNL1       -0.1328
     23 F         143.4584  140.9227  169.2707 F       1  UNL1       -0.1328
@<TRIPOS>BOND
     1     7     8    1
     2     8     9    1
     3     8    10    1
     4     8     1    1
     5     1     2   ar
     6     2     3   ar
     7     3    13    1
     8    13    14   ar
     9    14    15   ar
    10    15    16   ar
    11    16    17   ar
    12    17    19    1
    13    19    20    1
    14    20    21    1
    15    20    22    1
    16    20    23    1
    17    17    18   ar
    18     3     4   ar
    19     4     5   ar
    20     5     1   ar
    21    18    13   ar
    22    10    11    1
    23    10    12    1
    24     5     6    1
@<TRIPOS>MOLECULE
*****
 23 24 0 0 0
SMALL
GASTEIGER

@<TRIPOS>ATOM
      1 C         140.8524  139.9727  168.8029 C.ar    1  UNL1        0.1295
      2 N         139.7317  139.9890  167.8061 N.ar    1  UNL1       -0.2298
      3 C         140.3044  139.6600  166.4593 C.ar    1  UNL1        0.0997
      4 C         141.7791  139.4404  166.6238 C.ar    1  UNL1        0.0927
      5 N         142.1178  139.6336  168.0722 N.ar    1  UNL1       -0.3386
      6 H         143.0134  139.5522  168.4729 H       1  UNL1        0.1672
      7 C         142.2114  140.0759  170.4285 C.3     1  UNL1        0.0232
      8 C         140.7294  140.2472  170.2724 C.3     1  UNL1        0.0901
      9 C         139.2474  140.4184  170.1164 C.3     1  UNL1        0.0232
     10 N         140.6064  140.5217  171.7420 N.3     1  UNL1       -0.3177
     11 H         141.5286  140.4741  172.1751 H       1  UNL1        0.1191
     12 H         139.9944  139.8256  172.1678 H       1  UNL1        0.1191
     13 C         139.5371  139.5670  165.1737 C.ar    1  UNL1        0.0222
     14 C         139.6467  138.3371  164.3221 C.ar    1  UNL1        0.0017
     15 C         138.8794  138.2441  163.0366 C.ar    1  UNL1        0.0032
     16 C         138.0025  139.3811  162.6027 C.ar    1  UNL1        0.0372
     17 C         137.8929  140.6110  163.4543 C.ar    1  UNL1        0.1469
     18 C         138.6602  140.7040  164.7398 C.ar    1  UNL1        0.0387
     19 O         137.0160  141.7480  163.0204 O.3     1  UNL1       -0.4045
     20 C         137.6136  143.0988  162.7592 C.3     1  UNL1        0.5753
     21 F         138.2113  144.4496  162.4981 F       1  UNL1       -0.1328
     22 F         137.8772  142.7069  161.3355 F       1  UNL1       -0.1328
     23 F         137.3501  143.4906  164.1829 F       1  UNL1       -0.1328
@<TRIPOS>BOND
     1     7     8    1
     2     8     9    1
     3     8    10    1
     4     8     1    1
     5     1     2   ar
     6     2     3   ar
     7     3    13    1
     8    13    14   ar
     9    14    15   ar
    10    15    16   ar
    11    16    17   ar
    12    17    19    1
    13    19    20    1
    14    20    21    1
    15    20    22    1
    16    20    23    1
    17    17    18   ar
    18     3     4   ar
    19     4     5   ar
    20     5     1   ar
    21    18    13   ar
    22    10    11    1
    23    10    12    1
    24     5     6    1
@<TRIPOS>MOLECULE
*****
 23 24 0 0 0
SMALL
GASTEIGER

@<TRIPOS>ATOM
      1 C         142.6787  140.7276  168.6464 C.ar    1  UNL1        0.1295
      2 N         142.5605  142.0656  167.9789 N.ar    1  UNL1       -0.2298
      3 C         142.5877  141.8475  166.4951 C.ar    1  UNL1        0.0997
      4 C         142.7226  140.3746  166.2455 C.ar    1  UNL1        0.0927
      5 N         142.7788  139.6824  167.5751 N.ar    1  UNL1       -0.3386
      6 H         142.8662  138.7124  167.7193 H       1  UNL1        0.1672
      7 C         142.4622  139.0166  169.8816 C.3     1  UNL1        0.0232
      8 C         142.6939  140.4784  170.1255 C.3     1  UNL1        0.0901
      9 C         142.9256  141.9402  170.3693 C.3     1  UNL1        0.0232
     10 N         142.7092  140.2292  171.6045 N.3     1  UNL1       -0.3177
     11 H         142.5641  139.2356  171.7834 H       1  UNL1        0.1191
     12 H         141.9642  140.7668  172.0476 H       1  UNL1        0.1191
     13 C         142.4960  142.9149  165.4451 C.ar    1  UNL1        0.0222
     14 C         143.7424  143.4307  164.7892 C.ar    1  UNL1        0.0017
     15 C         143.6507  144.4981  163.7393 C.ar    1  UNL1        0.0032
     16 C         142.3125  145.0496  163.3454 C.ar    1  UNL1        0.0372
     17 C         141.0661  144.5337  164.0013 C.ar    1  UNL1        0.1469
     18 C         141.1578  143.4664  165.0512 C.ar    1  UNL1        0.0387
     19 O         139.7280  145.0853  163.6074 O.3     1  UNL1       -0.4045
     20 C         138.4798  144.5539  164.2475 C.3     1  UNL1        0.5753
     21 F         137.2316  144.0226  164.8876 F       1  UNL1       -0.1328
     22 F         138.2358  143.6844  163.0499 F       1  UNL1       -0.1328
     23 F         138.7238  145.4235  165.4450 F       1  UNL1       -0.1328
@<TRIPOS>BOND
     1     7     8    1
     2     8     9    1
     3     8    10    1
     4     8     1    1
     5     1     2   ar
     6     2     3   ar
     7     3    13    1
     8    13    14   ar
     9    14    15   ar
    10    15    16   ar
    11    16    17   ar
    12    17    19    1
    13    19    20    1
    14    20    21    1
    15    20    22    1
    16    20    23    1
    17    17    18   ar
    18     3     4   ar
    19     4     5   ar
    20     5     1   ar
    21    18    13   ar
    22    10    11    1
    23    10    12    1
    24     5     6    1
@<TRIPOS>MOLECULE
*****
 23 24 0 0 0
SMALL
GASTEIGER

@<TRIPOS>ATOM
      1 C         140.8364  140.1218  168.4682 C.ar    1  UNL1        0.1295
      2 N         142.1638  140.4887  167.8736 N.ar    1  UNL1       -0.2298
      3 C         142.0118  140.5155  166.3816 C.ar    1  UNL1        0.0997
      4 C         140.5906  140.1651  166.0540 C.ar    1  UNL1        0.0927
      5 N         139.8641  139.9218  167.3436 N.ar    1  UNL1       -0.3386
      6 H         138.9157  139.6744  167.4357 H       1  UNL1        0.1672
      7 C         141.9135  139.4377  170.1628 C.3     1  UNL1        0.0232
      8 C         140.5344  139.9798  169.9306 C.3     1  UNL1        0.0901
      9 C         139.1552  140.5220  169.6984 C.3     1  UNL1        0.0232
     10 N         140.2323  139.8378  171.3930 N.3     1  UNL1       -0.3177
     11 H         141.0481  139.4581  171.8733 H       1  UNL1        0.1191
     12 H         139.4405  139.2069  171.5169 H       1  UNL1        0.1191
     13 C         143.0916  140.8363  165.3910 C.ar    1  UNL1        0.0222
     14 C         144.0619  139.7732  164.9686 C.ar    1  UNL1        0.0017
     15 C         145.1416  140.0941  163.9781 C.ar    1  UNL1        0.0032
     16 C         145.2511  141.4780  163.4100 C.ar    1  UNL1        0.0372
     17 C         144.2809  142.5410  163.8323 C.ar    1  UNL1        0.1469
     18 C         143.2011  142.2202  164.8229 C.ar    1  UNL1        0.0387
     19 O         144.3904  143.9250  163.2642 O.3     1  UNL1       -0.4045
     20 C         143.2695  144.9038  163.4524 C.3     1  UNL1        0.5753
     21 F         142.1486  145.8827  163.6406 F       1  UNL1       -0.1328
     22 F         142.5427  144.2950  162.2901 F       1  UNL1       -0.1328
     23 F         143.9963  145.5127  164.6146 F       1  UNL1       -0.1328
@<TRIPOS>BOND
     1     7     8    1
     2     8     9    1
     3     8    10    1
     4     8     1    1
     5     1     2   ar
     6     2     3   ar
     7     3    13    1
     8    13    14   ar
     9    14    15   ar
    10    15    16   ar
    11    16    17   ar
    12    17    19    1
    13    19    20    1
    14    20    21    1
    15    20    22    1
    16    20    23    1
    17    17    18   ar
    18     3     4   ar
    19     4     5   ar
    20     5     1   ar
    21    18    13   ar
    22    10    11    1
    23    10    12    1
    24     5     6    1
@<TRIPOS>MOLECULE
*****
 23 24 0 0 0
SMALL
GASTEIGER

@<TRIPOS>ATOM
      1 C         142.6843  140.9191  168.7620 C.ar    1  UNL1        0.1295
      2 N         142.6372  139.8087  167.7546 N.ar    1  UNL1       -0.2298
      3 C         142.8888  140.4010  166.3997 C.ar    1  UNL1        0.0997
      4 C         143.0913  141.8775  166.5696 C.ar    1  UNL1        0.0927
      5 N         142.9649  142.1977  168.0296 N.ar    1  UNL1       -0.3386
      6 H         143.0510  143.0904  168.4358 H       1  UNL1        0.1672
      7 C         142.4766  139.2831  170.0963 C.3     1  UNL1        0.0232
      8 C         142.4856  140.7760  170.2418 C.3     1  UNL1        0.0901
      9 C         142.4947  142.2689  170.3874 C.3     1  UNL1        0.0232
     10 N         142.2870  140.6329  171.7217 N.3     1  UNL1       -0.3177
     11 H         142.2362  139.6434  171.9638 H       1  UNL1        0.1191
     12 H         141.4194  141.0947  171.9945 H       1  UNL1        0.1191
     13 C         142.9305  139.6489  165.1025 C.ar    1  UNL1        0.0222
     14 C         144.0918  139.8259  164.1698 C.ar    1  UNL1        0.0017
     15 C         144.1334  139.0738  162.8727 C.ar    1  UNL1        0.0032
     16 C         143.0137  138.1446  162.5083 C.ar    1  UNL1        0.0372
     17 C         141.8524  137.9675  163.4410 C.ar    1  UNL1        0.1469
     18 C         141.8108  138.7196  164.7381 C.ar    1  UNL1        0.0387
     19 O         140.7327  137.0382  163.0765 O.3     1  UNL1       -0.4045
     20 C         139.3811  137.5908  162.7333 C.3     1  UNL1        0.5753
     21 F         138.0295  138.1434  162.3899 F       1  UNL1       -0.1328
     22 F         138.9273  137.3569  164.1437 F       1  UNL1       -0.1328
     23 F         139.8350  137.8247  161.3229 F       1  UNL1       -0.1328
@<TRIPOS>BOND
     1     7     8    1
     2     8     9    1
     3     8    10    1
     4     8     1    1
     5     1     2   ar
     6     2     3   ar
     7     3    13    1
     8    13    14   ar
     9    14    15   ar
    10    15    16   ar
    11    16    17   ar
    12    17    19    1
    13    19    20    1
    14    20    21    1
    15    20    22    1
    16    20    23    1
    17    17    18   ar
    18     3     4   ar
    19     4     5   ar
    20     5     1   ar
    21    18    13   ar
    22    10    11    1
    23    10    12    1
    24     5     6    1
@<TRIPOS>MOLECULE
*****
 23 24 0 0 0
SMALL
GASTEIGER

@<TRIPOS>ATOM
      1 C         142.3374  141.8600  169.0823 C.ar    1  UNL1        0.1295
      2 N         141.1979  142.0170  168.1195 N.ar    1  UNL1       -0.2298
      3 C         141.0990  140.7585  167.3093 C.ar    1  UNL1        0.0997
      4 C         142.1773  139.8237  167.7713 C.ar    1  UNL1        0.0927
      5 N         142.9427  140.5045  168.8671 N.ar    1  UNL1       -0.3386
      6 H         143.7080  140.1278  169.3587 H       1  UNL1        0.1672
      7 C         141.3926  143.4122  170.1769 C.3     1  UNL1        0.0232
      8 C         142.7918  142.8795  170.0843 C.3     1  UNL1        0.0901
      9 C         144.1910  142.3469  169.9918 C.3     1  UNL1        0.0232
     10 N         143.2462  143.8991  171.0864 N.3     1  UNL1       -0.3177
     11 H         142.4522  144.4716  171.3728 H       1  UNL1        0.1191
     12 H         143.9604  144.4939  170.6662 H       1  UNL1        0.1191
     13 C         140.0975  140.4831  166.2270 C.ar    1  UNL1        0.0222
     14 C         139.8803  139.0791  165.7457 C.ar    1  UNL1        0.0017
     15 C         138.8788  138.8038  164.6635 C.ar    1  UNL1        0.0032
     16 C         138.0946  139.9325  164.0626 C.ar    1  UNL1        0.0372
     17 C         138.3118  141.3364  164.5438 C.ar    1  UNL1        0.1469
     18 C         139.3133  141.6117  165.6260 C.ar    1  UNL1        0.0387
     19 O         137.5276  142.4651  163.9429 O.3     1  UNL1       -0.4045
     20 C         138.1507  143.8228  163.8075 C.3     1  UNL1        0.5753
     21 F         138.7739  145.1805  163.6721 F       1  UNL1       -0.1328
     22 F         137.3878  144.2929  165.0103 F       1  UNL1       -0.1328
     23 F         138.9137  143.3526  162.6047 F       1  UNL1       -0.1328
@<TRIPOS>BOND
     1     7     8    1
     2     8     9    1
     3     8    10    1
     4     8     1    1
     5     1     2   ar
     6     2     3   ar
     7     3    13    1
     8    13    14   ar
     9    14    15   ar
    10    15    16   ar
    11    16    17   ar
    12    17    19    1
    13    19    20    1
    14    20    21    1
    15    20    22    1
    16    20    23    1
    17    17    18   ar
    18     3     4   ar
    19     4     5   ar
    20     5     1   ar
    21    18    13   ar
    22    10    11    1
    23    10    12    1
    24     5     6    1
@<TRIPOS>MOLECULE
*****
 23 24 0 0 0
SMALL
GASTEIGER

@<TRIPOS>ATOM
      1 C         139.7104  143.9389  162.1121 C.ar    1  UNL1        0.1295
      2 N         140.2117  143.0890  163.2419 N.ar    1  UNL1       -0.2298
      3 C         139.0262  142.4515  163.9038 C.ar    1  UNL1        0.0997
      4 C         137.7922  142.9074  163.1832 C.ar    1  UNL1        0.0927
      5 N         138.2150  143.8266  162.0758 N.ar    1  UNL1       -0.3386
      6 H         137.6162  144.2772  161.4373 H       1  UNL1        0.1672
      7 C         141.2291  143.5084  160.6950 C.3     1  UNL1        0.0232
      8 C         140.5560  144.7573  161.1820 C.3     1  UNL1        0.0901
      9 C         139.8829  146.0062  161.6689 C.3     1  UNL1        0.0232
     10 N         141.4015  145.5757  160.2518 N.3     1  UNL1       -0.3177
     11 H         142.0248  144.9605  159.7288 H       1  UNL1        0.1191
     12 H         141.9549  146.2409  160.7919 H       1  UNL1        0.1191
     13 C         139.0674  141.5214  165.0800 C.ar    1  UNL1        0.0222
     14 C         138.2314  140.2761  165.0811 C.ar    1  UNL1        0.0017
     15 C         138.2727  139.3461  166.2572 C.ar    1  UNL1        0.0032
     16 C         139.1501  139.6614  167.4323 C.ar    1  UNL1        0.0372
     17 C         139.9861  140.9068  167.4312 C.ar    1  UNL1        0.1469
     18 C         139.9448  141.8368  166.2551 C.ar    1  UNL1        0.0387
     19 O         140.8634  141.2222  168.6063 O.3     1  UNL1       -0.4045
     20 C         140.8743  142.6064  169.1841 C.3     1  UNL1        0.5753
     21 F         140.8852  143.9906  169.7619 F       1  UNL1       -0.1328
     22 F         142.2259  142.8478  168.5800 F       1  UNL1       -0.1328
     23 F         139.5228  142.3649  169.7882 F       1  UNL1       -0.1328
@<TRIPOS>BOND
     1     7     8    1
     2     8     9    1
     3     8    10    1
     4     8     1    1
     5     1     2   ar
     6     2     3   ar
     7     3    13    1
     8    13    14   ar
     9    14    15   ar
    10    15    16   ar
    11    16    17   ar
    12    17    19    1
    13    19    20    1
    14    20    21    1
    15    20    22    1
    16    20    23    1
    17    17    18   ar
    18     3     4   ar
    19     4     5   ar
    20     5     1   ar
    21    18    13   ar
    22    10    11    1
    23    10    12    1
    24     5     6    1
@<TRIPOS>MOLECULE
*****
 23 24 0 0 0
SMALL
GASTEIGER

@<TRIPOS>ATOM
      1 C         141.7853  142.4734  168.7362 C.ar    1  UNL1        0.1295
      2 N         140.5009  142.8145  168.0406 N.ar    1  UNL1       -0.2298
      3 C         140.7318  142.7082  166.5623 C.ar    1  UNL1        0.0997
      4 C         142.1590  142.3014  166.3442 C.ar    1  UNL1        0.0927
      5 N         142.8101  142.1563  167.6877 N.ar    1  UNL1       -0.3386
      6 H         143.7458  141.8982  167.8524 H       1  UNL1        0.1672
      7 C         143.4891  142.4083  169.9982 C.3     1  UNL1        0.0232
      8 C         142.0063  142.4530  170.2197 C.3     1  UNL1        0.0901
      9 C         140.5234  142.4977  170.4411 C.3     1  UNL1        0.0232
     10 N         142.2272  142.4326  171.7031 N.3     1  UNL1       -0.3177
     11 H         143.2279  142.3994  171.8974 H       1  UNL1        0.1191
     12 H         141.7757  141.6099  172.1028 H       1  UNL1        0.1191
     13 C         139.7141  142.9638  165.4903 C.ar    1  UNL1        0.0222
     14 C         139.4416  144.3664  165.0340 C.ar    1  UNL1        0.0017
     15 C         138.4239  144.6220  163.9621 C.ar    1  UNL1        0.0032
     16 C         137.6788  143.4749  163.3465 C.ar    1  UNL1        0.0372
     17 C         137.9514  142.0722  163.8028 C.ar    1  UNL1        0.1469
     18 C         138.9690  141.8167  164.8747 C.ar    1  UNL1        0.0387
     19 O         137.2063  140.9252  163.1871 O.3     1  UNL1       -0.4045
     20 C         137.9069  139.9986  162.2382 C.3     1  UNL1        0.5753
     21 F         138.6076  139.0720  161.2892 F       1  UNL1       -0.1328
     22 F         137.7036  140.9841  161.1258 F       1  UNL1       -0.1328
     23 F         138.1102  139.0131  163.3505 F       1  UNL1       -0.1328
@<TRIPOS>BOND
     1     7     8    1
     2     8     9    1
     3     8    10    1
     4     8     1    1
     5     1     2   ar
     6     2     3   ar
     7     3    13    1
     8    13    14   ar
     9    14    15   ar
    10    15    16   ar
    11    16    17   ar
    12    17    19    1
    13    19    20    1
    14    20    21    1
    15    20    22    1
    16    20    23    1
    17    17    18   ar
    18     3     4   ar
    19     4     5   ar
    20     5     1   ar
    21    18    13   ar
    22    10    11    1
    23    10    12    1
    24     5     6    1
@<TRIPOS>MOLECULE
*****
 23 24 0 0 0
SMALL
GASTEIGER

@<TRIPOS>ATOM
      1 C         140.4481  140.3924  168.5813 C.ar    1  UNL1        0.1295
      2 N         141.5274  141.3162  168.1001 N.ar    1  UNL1       -0.2298
      3 C         141.3511  141.5052  166.6225 C.ar    1  UNL1        0.0997
      4 C         140.1628  140.6983  166.1905 C.ar    1  UNL1        0.0927
      5 N         139.6047  140.0105  167.4011 N.ar    1  UNL1       -0.3386
      6 H         138.8222  139.4132  167.4180 H       1  UNL1        0.1672
      7 C         138.8267  140.4102  169.9489 C.3     1  UNL1        0.0232
      8 C         140.2474  139.9314  169.9945 C.3     1  UNL1        0.0901
      9 C         141.6682  139.4525  170.0400 C.3     1  UNL1        0.0232
     10 N         140.0467  139.4704  171.4077 N.3     1  UNL1       -0.3177
     11 H         139.0904  139.6729  171.6988 H       1  UNL1        0.1191
     12 H         140.6994  139.9590  172.0206 H       1  UNL1        0.1191
     13 C         142.2120  142.3526  165.7331 C.ar    1  UNL1        0.0222
     14 C         143.6237  142.6650  166.1322 C.ar    1  UNL1        0.0017
     15 C         144.4845  143.5123  165.2428 C.ar    1  UNL1        0.0032
     16 C         143.9336  144.0471  163.9543 C.ar    1  UNL1        0.0372
     17 C         142.5219  143.7347  163.5551 C.ar    1  UNL1        0.1469
     18 C         141.6611  142.8874  164.4445 C.ar    1  UNL1        0.0387
     19 O         141.9709  144.2696  162.2665 O.3     1  UNL1       -0.4045
     20 C         140.8510  145.2672  162.2864 C.3     1  UNL1        0.5753
     21 F         139.7310  146.2649  162.3062 F       1  UNL1       -0.1328
     22 F         141.5530  146.0337  163.3679 F       1  UNL1       -0.1328
     23 F         140.1491  144.5007  161.2049 F       1  UNL1       -0.1328
@<TRIPOS>BOND
     1     7     8    1
     2     8     9    1
     3     8    10    1
     4     8     1    1
     5     1     2   ar
     6     2     3   ar
     7     3    13    1
     8    13    14   ar
     9    14    15   ar
    10    15    16   ar
    11    16    17   ar
    12    17    19    1
    13    19    20    1
    14    20    21    1
    15    20    22    1
    16    20    23    1
    17    17    18   ar
    18     3     4   ar
    19     4     5   ar
    20     5     1   ar
    21    18    13   ar
    22    10    11    1
    23    10    12    1
    24     5     6    1
