@<TRIPOS>MOLECULE
*****
 32 36 0 0 0
SMALL
GASTEIGER

@<TRIPOS>ATOM
      1 C         139.6570  139.6476  166.7293 C.ar    1  UNL1        0.0206
      2 C         138.3806  139.5120  165.9531 C.ar    1  UNL1        0.0013
      3 C         138.4198  139.1005  164.5111 C.ar    1  UNL1       -0.0045
      4 C         139.7355  138.8247  163.8454 C.ar    1  UNL1       -0.0247
      5 C         141.0117  138.9603  164.6217 C.ar    1  UNL1       -0.0246
      6 C         140.9726  139.3717  166.0636 C.ar    1  UNL1       -0.0029
      7 C         142.4191  138.7345  164.1543 C.3     1  UNL1        0.0433
      8 C         142.8977  138.3174  162.7952 C.3     1  UNL1        0.0768
      9 N         142.0871  138.0231  161.5680 N.3     1  UNL1       -0.2720
     10 C         140.5978  138.0731  161.3965 C.3     1  UNL1        0.0768
     11 C         139.5512  138.4298  162.4101 C.3     1  UNL1        0.0433
     12 C         140.8770  141.9130  171.3402 C.3     1  UNL1        0.0754
     13 C         140.1784  141.1004  170.2906 C.ar    1  UNL1        0.1548
     14 C         140.5999  140.9613  168.8577 C.ar    1  UNL1        0.0580
     15 C         139.6177  140.0591  168.1712 C.ar    1  UNL1        0.1227
     16 N         138.5893  139.6406  169.1798 N.ar    1  UNL1       -0.0774
     17 O         138.9358  140.2841  170.4896 O.2     1  UNL1       -0.3578
     18 C         142.8693  137.6262  160.3511 C.3     1  UNL1        0.0730
     19 C         142.7975  138.4622  159.1077 C.3     1  UNL1        0.0294
     20 C         143.6783  139.6677  158.9624 C.3     1  UNL1        0.0666
     21 S         143.1430  141.0310  159.2858 S.3     1  UNL1       -0.0756
     22 C         142.9668  141.4478  160.7159 C.ar    1  UNL1        0.1930
     23 N         144.0623  141.6153  161.7268 N.ar    1  UNL1       -0.1224
     24 N         143.4368  142.0413  163.0219 N.ar    1  UNL1       -0.1328
     25 C         141.9547  142.1372  162.8114 C.ar    1  UNL1        0.1432
     26 N         141.6642  141.7704  161.3861 N.ar    1  UNL1       -0.2918
     27 C         140.3091  141.7328  160.7440 C.3     1  UNL1        0.1337
     28 C         140.9411  142.5307  163.8446 C.3     1  UNL1        0.0588
     29 C         141.2368  142.9625  165.2503 C.3     1  UNL1        0.0075
     30 C         139.9322  143.2603  165.9280 C.3     1  UNL1        0.0005
     31 C         138.8301  143.0124  164.9412 C.3     1  UNL1        0.0005
     32 C         139.4536  142.5616  163.6535 C.3     1  UNL1        0.0075
@<TRIPOS>BOND
     1    12    13    1
     2    13    14   ar
     3    14    15   ar
     4    15     1    1
     5     1     2   ar
     6     2     3   ar
     7     3     4   ar
     8     4     5   ar
     9     5     6   ar
    10     5     7    1
    11     7     8    1
    12     8     9    1
    13     9    18    1
    14    18    19    1
    15    19    20    1
    16    20    21    1
    17    21    22    1
    18    22    23   ar
    19    23    24   ar
    20    24    25   ar
    21    25    28    1
    22    28    29    1
    23    29    30    1
    24    30    31    1
    25    31    32    1
    26    25    26   ar
    27    26    27    1
    28     9    10    1
    29    10    11    1
    30    15    16   ar
    31    16    17   ar
    32    17    13   ar
    33     6     1   ar
    34    26    22   ar
    35    11     4    1
    36    32    28    1
@<TRIPOS>MOLECULE
*****
 32 36 0 0 0
SMALL
GASTEIGER

@<TRIPOS>ATOM
      1 C         138.9645  139.5192  166.5914 C.ar    1  UNL1        0.0206
      2 C         138.9259  138.0803  166.1694 C.ar    1  UNL1        0.0013
      3 C         138.7843  137.7279  164.7182 C.ar    1  UNL1       -0.0045
      4 C         138.6813  138.8145  163.6891 C.ar    1  UNL1       -0.0247
      5 C         138.7199  140.2532  164.1112 C.ar    1  UNL1       -0.0246
      6 C         138.8615  140.6057  165.5623 C.ar    1  UNL1       -0.0029
      7 C         138.6335  141.4818  163.2549 C.3     1  UNL1        0.0433
      8 C         138.4872  141.5748  161.7648 C.3     1  UNL1        0.0768
      9 N         138.3911  140.4623  160.7634 N.3     1  UNL1       -0.2720
     10 C         138.4176  138.9820  161.0044 C.3     1  UNL1        0.0768
     11 C         138.5468  138.2486  162.3065 C.3     1  UNL1        0.0433
     12 C         140.8421  141.4653  171.1266 C.3     1  UNL1        0.0754
     13 C         139.9692  140.7661  170.1272 C.ar    1  UNL1        0.1548
     14 C         140.2333  140.6488  168.6552 C.ar    1  UNL1        0.0580
     15 C         139.1062  139.8716  168.0425 C.ar    1  UNL1        0.1227
     16 N         138.1454  139.5085  169.1358 N.ar    1  UNL1       -0.0774
     17 O         138.6788  140.0613  170.4241 O.2     1  UNL1       -0.3578
     18 C         138.2499  140.8861  159.3314 C.3     1  UNL1        0.0730
     19 C         139.4444  141.3905  158.5772 C.3     1  UNL1        0.0294
     20 C         140.4558  140.4220  158.0395 C.3     1  UNL1        0.0666
     21 S         141.7995  140.2999  158.6947 S.3     1  UNL1       -0.0756
     22 C         141.9312  139.5893  160.0091 C.ar    1  UNL1        0.1930
     23 N         141.9218  138.1032  160.2127 N.ar    1  UNL1       -0.1224
     24 N         142.0803  137.8354  161.6801 N.ar    1  UNL1       -0.1328
     25 C         142.1877  139.1559  162.3833 C.ar    1  UNL1        0.1432
     26 N         142.0956  140.2400  161.3506 N.ar    1  UNL1       -0.2918
     27 C         142.1570  141.7155  161.6133 C.3     1  UNL1        0.1337
     28 C         142.3574  139.3572  163.8600 C.3     1  UNL1        0.0588
     29 C         142.4506  138.2733  164.8926 C.3     1  UNL1        0.0075
     30 C         142.6145  138.9239  166.2343 C.3     1  UNL1        0.0005
     31 C         142.6226  140.4100  166.0308 C.3     1  UNL1        0.0005
     32 C         142.4637  140.6778  164.5634 C.3     1  UNL1        0.0075
@<TRIPOS>BOND
     1    12    13    1
     2    13    14   ar
     3    14    15   ar
     4    15     1    1
     5     1     2   ar
     6     2     3   ar
     7     3     4   ar
     8     4     5   ar
     9     5     6   ar
    10     5     7    1
    11     7     8    1
    12     8     9    1
    13     9    18    1
    14    18    19    1
    15    19    20    1
    16    20    21    1
    17    21    22    1
    18    22    23   ar
    19    23    24   ar
    20    24    25   ar
    21    25    28    1
    22    28    29    1
    23    29    30    1
    24    30    31    1
    25    31    32    1
    26    25    26   ar
    27    26    27    1
    28     9    10    1
    29    10    11    1
    30    15    16   ar
    31    16    17   ar
    32    17    13   ar
    33     6     1   ar
    34    26    22   ar
    35    11     4    1
    36    32    28    1
@<TRIPOS>MOLECULE
*****
 32 36 0 0 0
SMALL
GASTEIGER

@<TRIPOS>ATOM
      1 C         139.9530  140.9264  166.7869 C.ar    1  UNL1        0.0206
      2 C         138.8830  140.2421  165.9889 C.ar    1  UNL1        0.0013
      3 C         138.4461  140.8155  164.6734 C.ar    1  UNL1       -0.0045
      4 C         139.0793  142.0731  164.1560 C.ar    1  UNL1       -0.0247
      5 C         140.1492  142.7573  164.9541 C.ar    1  UNL1       -0.0246
      6 C         140.5861  142.1840  166.2695 C.ar    1  UNL1       -0.0029
      7 C         140.9049  144.0104  164.6244 C.3     1  UNL1        0.0433
      8 C         140.7772  144.8888  163.4151 C.3     1  UNL1        0.0768
      9 N         139.8624  144.7309  162.2371 N.3     1  UNL1       -0.2720
     10 C         138.8492  143.6558  161.9771 C.3     1  UNL1        0.0768
     11 C         138.5006  142.4729  162.8311 C.3     1  UNL1        0.0433
     12 C         142.9734  139.1051  170.7164 C.3     1  UNL1        0.0754
     13 C         141.7782  139.5158  169.9086 C.ar    1  UNL1        0.1548
     14 C         141.8054  140.0892  168.5227 C.ar    1  UNL1        0.0580
     15 C         140.3899  140.3530  168.1024 C.ar    1  UNL1        0.1227
     16 N         139.4878  139.9428  169.2285 N.ar    1  UNL1       -0.0774
     17 O         140.3458  139.4254  170.3447 O.2     1  UNL1       -0.3578
     18 C         139.9756  145.7880  161.1789 C.3     1  UNL1        0.0730
     19 C         140.1122  145.3950  159.7376 C.3     1  UNL1        0.0294
     20 C         141.4706  145.1382  159.1557 C.3     1  UNL1        0.0666
     21 S         142.0525  143.7562  159.1909 S.3     1  UNL1       -0.0756
     22 C         142.5162  143.1706  160.4917 C.ar    1  UNL1        0.1930
     23 N         143.5583  143.7537  161.3995 N.ar    1  UNL1       -0.1224
     24 N         143.7053  142.8426  162.5820 N.ar    1  UNL1       -0.1328
     25 C         142.7541  141.6964  162.4050 C.ar    1  UNL1        0.1432
     26 N         142.0192  141.8991  161.1131 N.ar    1  UNL1       -0.2918
     27 C         140.9712  140.9899  160.5429 C.3     1  UNL1        0.1337
     28 C         142.5701  140.5489  163.3533 C.3     1  UNL1        0.0588
     29 C         141.5831  139.4296  163.2021 C.3     1  UNL1        0.0075
     30 C         141.7438  138.5082  164.3748 C.3     1  UNL1        0.0005
     31 C         142.8302  139.0580  165.2508 C.3     1  UNL1        0.0005
     32 C         143.3409  140.3192  164.6195 C.3     1  UNL1        0.0075
@<TRIPOS>BOND
     1    12    13    1
     2    13    14   ar
     3    14    15   ar
     4    15     1    1
     5     1     2   ar
     6     2     3   ar
     7     3     4   ar
     8     4     5   ar
     9     5     6   ar
    10     5     7    1
    11     7     8    1
    12     8     9    1
    13     9    18    1
    14    18    19    1
    15    19    20    1
    16    20    21    1
    17    21    22    1
    18    22    23   ar
    19    23    24   ar
    20    24    25   ar
    21    25    28    1
    22    28    29    1
    23    29    30    1
    24    30    31    1
    25    31    32    1
    26    25    26   ar
    27    26    27    1
    28     9    10    1
    29    10    11    1
    30    15    16   ar
    31    16    17   ar
    32    17    13   ar
    33     6     1   ar
    34    26    22   ar
    35    11     4    1
    36    32    28    1
@<TRIPOS>MOLECULE
*****
 32 36 0 0 0
SMALL
GASTEIGER

@<TRIPOS>ATOM
      1 C         142.0084  140.5414  166.3152 C.ar    1  UNL1        0.0206
      2 C         142.2872  139.0677  166.3362 C.ar    1  UNL1        0.0013
      3 C         142.4519  138.3171  165.0479 C.ar    1  UNL1       -0.0045
      4 C         142.3378  139.0403  163.7387 C.ar    1  UNL1       -0.0247
      5 C         142.0591  140.5139  163.7177 C.ar    1  UNL1       -0.0246
      6 C         141.8943  141.2645  165.0059 C.ar    1  UNL1       -0.0029
      7 C         141.9081  141.4205  162.5322 C.3     1  UNL1        0.0433
      8 C         141.9986  141.0770  161.0747 C.3     1  UNL1        0.0768
      9 N         142.2625  139.7425  160.4431 N.3     1  UNL1       -0.2720
     10 C         142.5010  138.4215  161.1126 C.3     1  UNL1        0.0768
     11 C         142.5345  138.1090  162.5793 C.3     1  UNL1        0.0433
     12 C         140.3687  144.0386  169.9154 C.3     1  UNL1        0.0754
     13 C         141.0900  142.8994  169.2583 C.ar    1  UNL1        0.1548
     14 C         140.9374  142.4654  167.8305 C.ar    1  UNL1        0.0580
     15 C         141.8437  141.2919  167.6034 C.ar    1  UNL1        0.1227
     16 N         142.5565  141.0007  168.8907 N.ar    1  UNL1       -0.0774
     17 O         142.0907  141.9942  169.9134 O.2     1  UNL1       -0.3578
     18 C         142.2917  139.7266  158.9434 C.3     1  UNL1        0.0730
     19 C         141.0297  139.4793  158.1712 C.3     1  UNL1        0.0294
     20 C         140.0034  140.5657  158.0434 C.3     1  UNL1        0.0666
     21 S         138.6683  140.4185  158.7111 S.3     1  UNL1       -0.0756
     22 C         138.5410  140.6371  160.1896 C.ar    1  UNL1        0.1930
     23 N         138.2583  141.9457  160.8662 N.ar    1  UNL1       -0.1224
     24 N         138.2166  141.7030  162.3458 N.ar    1  UNL1       -0.1328
     25 C         138.4734  140.2444  162.5837 C.ar    1  UNL1        0.1432
     26 N         138.6739  139.5856  161.2510 N.ar    1  UNL1       -0.2918
     27 C         138.9576  138.1309  161.0204 C.3     1  UNL1        0.1337
     28 C         138.5213  139.5639  163.9196 C.3     1  UNL1        0.0588
     29 C         138.8068  138.1111  164.1593 C.3     1  UNL1        0.0075
     30 C         138.7541  137.8661  165.6383 C.3     1  UNL1        0.0005
     31 C         138.4361  139.1677  166.3126 C.3     1  UNL1        0.0005
     32 C         138.2922  140.2170  165.2504 C.3     1  UNL1        0.0075
@<TRIPOS>BOND
     1    12    13    1
     2    13    14   ar
     3    14    15   ar
     4    15     1    1
     5     1     2   ar
     6     2     3   ar
     7     3     4   ar
     8     4     5   ar
     9     5     6   ar
    10     5     7    1
    11     7     8    1
    12     8     9    1
    13     9    18    1
    14    18    19    1
    15    19    20    1
    16    20    21    1
    17    21    22    1
    18    22    23   ar
    19    23    24   ar
    20    24    25   ar
    21    25    28    1
    22    28    29    1
    23    29    30    1
    24    30    31    1
    25    31    32    1
    26    25    26   ar
    27    26    27    1
    28     9    10    1
    29    10    11    1
    30    15    16   ar
    31    16    17   ar
    32    17    13   ar
    33     6     1   ar
    34    26    22   ar
    35    11     4    1
    36    32    28    1
@<TRIPOS>MOLECULE
*****
 32 36 0 0 0
SMALL
GASTEIGER

@<TRIPOS>ATOM
      1 C         139.6680  140.2877  166.5466 C.ar    1  UNL1        0.0206
      2 C         138.4406  139.5596  166.0848 C.ar    1  UNL1        0.0013
      3 C         137.8968  139.8043  164.7084 C.ar    1  UNL1       -0.0045
      4 C         138.5804  140.7771  163.7939 C.ar    1  UNL1       -0.0247
      5 C         139.8077  141.5052  164.2557 C.ar    1  UNL1       -0.0246
      6 C         140.3516  141.2605  165.6321 C.ar    1  UNL1       -0.0029
      7 C         140.6362  142.5087  163.5096 C.3     1  UNL1        0.0433
      8 C         140.4417  143.0320  162.1173 C.3     1  UNL1        0.0768
      9 N         139.3709  142.6810  161.1274 N.3     1  UNL1       -0.2720
     10 C         138.2300  141.7200  161.2851 C.3     1  UNL1        0.0768
     11 C         137.8782  140.8727  162.4719 C.3     1  UNL1        0.0433
     12 C         143.0070  139.6551  170.5879 C.3     1  UNL1        0.0754
     13 C         141.7466  139.7522  169.7806 C.ar    1  UNL1        0.1548
     14 C         141.6609  140.0380  168.3105 C.ar    1  UNL1        0.0580
     15 C         140.2118  140.0430  167.9230 C.ar    1  UNL1        0.1227
     16 N         139.4019  139.7603  169.1535 N.ar    1  UNL1       -0.0774
     17 O         140.3505  139.5806  170.3015 O.2     1  UNL1       -0.3578
     18 C         139.4516  143.3839  159.8047 C.3     1  UNL1        0.0730
     19 C         139.3109  142.6041  158.5311 C.3     1  UNL1        0.0294
     20 C         140.5335  142.1769  157.7742 C.3     1  UNL1        0.0666
     21 S         140.9878  140.7485  157.8279 S.3     1  UNL1       -0.0756
     22 C         140.6012  139.8816  158.9894 C.ar    1  UNL1        0.1930
     23 N         139.4000  138.9861  159.0597 N.ar    1  UNL1       -0.1224
     24 N         139.4042  138.3091  160.3983 N.ar    1  UNL1       -0.1328
     25 C         140.6081  138.7863  161.1552 C.ar    1  UNL1        0.1432
     26 N         141.3479  139.7582  160.2845 N.ar    1  UNL1       -0.2918
     27 C         142.6123  140.4799  160.6455 C.3     1  UNL1        0.1337
     28 C         141.0029  138.3655  162.5398 C.3     1  UNL1        0.0588
     29 C         142.1567  138.9070  163.3305 C.3     1  UNL1        0.0075
     30 C         142.1801  138.2055  164.6562 C.3     1  UNL1        0.0005
     31 C         141.0407  137.2303  164.6847 C.3     1  UNL1        0.0005
     32 C         140.3131  137.3292  163.3767 C.3     1  UNL1        0.0075
@<TRIPOS>BOND
     1    12    13    1
     2    13    14   ar
     3    14    15   ar
     4    15     1    1
     5     1     2   ar
     6     2     3   ar
     7     3     4   ar
     8     4     5   ar
     9     5     6   ar
    10     5     7    1
    11     7     8    1
    12     8     9    1
    13     9    18    1
    14    18    19    1
    15    19    20    1
    16    20    21    1
    17    21    22    1
    18    22    23   ar
    19    23    24   ar
    20    24    25   ar
    21    25    28    1
    22    28    29    1
    23    29    30    1
    24    30    31    1
    25    31    32    1
    26    25    26   ar
    27    26    27    1
    28     9    10    1
    29    10    11    1
    30    15    16   ar
    31    16    17   ar
    32    17    13   ar
    33     6     1   ar
    34    26    22   ar
    35    11     4    1
    36    32    28    1
@<TRIPOS>MOLECULE
*****
 32 36 0 0 0
SMALL
GASTEIGER

@<TRIPOS>ATOM
      1 C         140.3503  141.1563  165.4355 C.ar    1  UNL1        0.0206
      2 C         140.8599  142.5141  165.8187 C.ar    1  UNL1        0.0013
      3 C         141.6526  143.3228  164.8349 C.ar    1  UNL1       -0.0045
      4 C         141.9355  142.7737  163.4679 C.ar    1  UNL1       -0.0247
      5 C         141.4259  141.4161  163.0848 C.ar    1  UNL1       -0.0246
      6 C         140.6333  140.6073  164.0685 C.ar    1  UNL1       -0.0029
      7 C         141.5936  140.6867  161.7848 C.3     1  UNL1        0.0433
      8 C         142.3125  141.1351  160.5469 C.3     1  UNL1        0.0768
      9 N         143.0410  142.4233  160.3033 N.3     1  UNL1       -0.2720
     10 C         143.2308  143.5816  161.2374 C.3     1  UNL1        0.0768
     11 C         142.7388  143.7375  162.6458 C.3     1  UNL1        0.0433
     12 C         136.9137  137.7190  167.4981 C.3     1  UNL1        0.0754
     13 C         137.9781  138.7677  167.3674 C.ar    1  UNL1        0.1548
     14 C         138.5093  139.3293  166.0819 C.ar    1  UNL1        0.0580
     15 C         139.5577  140.3477  166.4193 C.ar    1  UNL1        0.1227
     16 N         139.6744  140.4154  167.9132 N.ar    1  UNL1       -0.0774
     17 O         138.6982  139.4390  168.4991 O.2     1  UNL1       -0.3578
     18 C         143.6620  142.5733  158.9461 C.3     1  UNL1        0.0730
     19 C         143.1450  143.6119  157.9953 C.3     1  UNL1        0.0294
     20 C         142.0456  143.2684  157.0344 C.3     1  UNL1        0.0666
     21 S         140.6316  143.6649  157.3397 S.3     1  UNL1       -0.0756
     22 C         140.2607  144.1154  158.7216 C.ar    1  UNL1        0.1930
     23 N         140.5969  145.4417  159.3364 N.ar    1  UNL1       -0.1224
     24 N         140.0325  145.4649  160.7260 N.ar    1  UNL1       -0.1328
     25 C         139.3476  144.1528  160.9700 C.ar    1  UNL1        0.1432
     26 N         139.4886  143.3188  159.7311 N.ar    1  UNL1       -0.2918
     27 C         138.9518  141.9318  159.5362 C.3     1  UNL1        0.1337
     28 C         138.6449  143.7462  162.2313 C.3     1  UNL1        0.0588
     29 C         138.5553  144.5557  163.4908 C.3     1  UNL1        0.0075
     30 C         137.7635  143.7684  164.4925 C.3     1  UNL1        0.0005
     31 C         137.3638  142.4723  163.8520 C.3     1  UNL1        0.0005
     32 C         137.9085  142.4586  162.4544 C.3     1  UNL1        0.0075
@<TRIPOS>BOND
     1    12    13    1
     2    13    14   ar
     3    14    15   ar
     4    15     1    1
     5     1     2   ar
     6     2     3   ar
     7     3     4   ar
     8     4     5   ar
     9     5     6   ar
    10     5     7    1
    11     7     8    1
    12     8     9    1
    13     9    18    1
    14    18    19    1
    15    19    20    1
    16    20    21    1
    17    21    22    1
    18    22    23   ar
    19    23    24   ar
    20    24    25   ar
    21    25    28    1
    22    28    29    1
    23    29    30    1
    24    30    31    1
    25    31    32    1
    26    25    26   ar
    27    26    27    1
    28     9    10    1
    29    10    11    1
    30    15    16   ar
    31    16    17   ar
    32    17    13   ar
    33     6     1   ar
    34    26    22   ar
    35    11     4    1
    36    32    28    1
@<TRIPOS>MOLECULE
*****
 32 36 0 0 0
SMALL
GASTEIGER

@<TRIPOS>ATOM
      1 C         139.4600  139.3357  164.3608 C.ar    1  UNL1        0.0206
      2 C         138.5247  138.8123  163.3113 C.ar    1  UNL1        0.0013
      3 C         138.9299  138.8344  161.8672 C.ar    1  UNL1       -0.0045
      4 C         140.2704  139.3799  161.4726 C.ar    1  UNL1       -0.0247
      5 C         141.2056  139.9032  162.5220 C.ar    1  UNL1       -0.0246
      6 C         140.8005  139.8811  163.9661 C.ar    1  UNL1       -0.0029
      7 C         142.5767  140.4857  162.3464 C.3     1  UNL1        0.0433
      8 C         143.3512  140.6887  161.0779 C.3     1  UNL1        0.0768
      9 N         142.9458  140.3594  159.6719 N.3     1  UNL1       -0.2720
     10 C         141.6659  139.7457  159.1869 C.3     1  UNL1        0.0768
     11 C         140.4752  139.3098  159.9883 C.3     1  UNL1        0.0433
     12 C         139.2277  140.3958  169.5282 C.3     1  UNL1        0.0754
     13 C         138.9480  139.8008  168.1800 C.ar    1  UNL1        0.1548
     14 C         139.6529  140.1442  166.9012 C.ar    1  UNL1        0.0580
     15 C         139.0548  139.3135  165.8048 C.ar    1  UNL1        0.1227
     16 N         137.9803  138.4567  166.4059 N.ar    1  UNL1       -0.0774
     17 O         137.9143  138.7579  167.8738 O.2     1  UNL1       -0.3578
     18 C         143.9536  140.6871  158.6103 C.3     1  UNL1        0.0730
     19 C         144.1315  142.1060  158.1573 C.3     1  UNL1        0.0294
     20 C         142.9829  142.8448  157.5368 C.3     1  UNL1        0.0666
     21 S         142.3922  144.0344  158.2338 S.3     1  UNL1       -0.0756
     22 C         141.9602  143.9263  159.6662 C.ar    1  UNL1        0.1930
     23 N         142.7908  144.2728  160.8661 N.ar    1  UNL1       -0.1224
     24 N         141.9658  144.0134  162.0917 N.ar    1  UNL1       -0.1328
     25 C         140.6251  143.5066  161.6491 C.ar    1  UNL1        0.1432
     26 N         140.6216  143.4528  160.1500 N.ar    1  UNL1       -0.2918
     27 C         139.4801  143.0042  159.2865 C.3     1  UNL1        0.1337
     28 C         139.4876  143.1213  162.5478 C.3     1  UNL1        0.0588
     29 C         139.4319  143.3189  164.0336 C.3     1  UNL1        0.0075
     30 C         138.1160  142.7904  164.5226 C.3     1  UNL1        0.0005
     31 C         137.3583  142.2663  163.3388 C.3     1  UNL1        0.0005
     32 C         138.2061  142.4708  162.1183 C.3     1  UNL1        0.0075
@<TRIPOS>BOND
     1    12    13    1
     2    13    14   ar
     3    14    15   ar
     4    15     1    1
     5     1     2   ar
     6     2     3   ar
     7     3     4   ar
     8     4     5   ar
     9     5     6   ar
    10     5     7    1
    11     7     8    1
    12     8     9    1
    13     9    18    1
    14    18    19    1
    15    19    20    1
    16    20    21    1
    17    21    22    1
    18    22    23   ar
    19    23    24   ar
    20    24    25   ar
    21    25    28    1
    22    28    29    1
    23    29    30    1
    24    30    31    1
    25    31    32    1
    26    25    26   ar
    27    26    27    1
    28     9    10    1
    29    10    11    1
    30    15    16   ar
    31    16    17   ar
    32    17    13   ar
    33     6     1   ar
    34    26    22   ar
    35    11     4    1
    36    32    28    1
@<TRIPOS>MOLECULE
*****
 32 36 0 0 0
SMALL
GASTEIGER

@<TRIPOS>ATOM
      1 C         142.7549  139.8049  166.5157 C.ar    1  UNL1        0.0206
      2 C         142.5839  138.5265  165.7500 C.ar    1  UNL1        0.0013
      3 C         142.8546  138.4937  164.2750 C.ar    1  UNL1       -0.0045
      4 C         143.2962  139.7396  163.5657 C.ar    1  UNL1       -0.0247
      5 C         143.4672  141.0179  164.3314 C.ar    1  UNL1       -0.0246
      6 C         143.1965  141.0507  165.8064 C.ar    1  UNL1       -0.0029
      7 C         143.8953  142.3626  163.8228 C.3     1  UNL1        0.0433
      8 C         144.2582  142.7609  162.4229 C.3     1  UNL1        0.0768
      9 N         144.2826  141.9129  161.1859 N.3     1  UNL1       -0.2720
     10 C         143.9501  140.4572  161.0432 C.3     1  UNL1        0.0768
     11 C         143.5111  139.4899  162.1023 C.3     1  UNL1        0.0433
     12 C         140.9364  141.2523  171.2569 C.3     1  UNL1        0.0754
     13 C         141.6484  140.5029  170.1700 C.ar    1  UNL1        0.1548
     14 C         141.6465  140.8521  168.7112 C.ar    1  UNL1        0.0580
     15 C         142.4842  139.8376  167.9907 C.ar    1  UNL1        0.1227
     16 N         143.0038  138.8615  169.0043 N.ar    1  UNL1       -0.0774
     17 O         142.4872  139.2726  170.3511 O.2     1  UNL1       -0.3578
     18 C         144.6938  142.6132  159.9248 C.3     1  UNL1        0.0730
     19 C         143.7371  142.7080  158.7733 C.3     1  UNL1        0.0294
     20 C         142.5638  143.6395  158.8476 C.3     1  UNL1        0.0666
     21 S         141.2197  143.1209  159.2652 S.3     1  UNL1       -0.0756
     22 C         140.8928  142.9716  160.7215 C.ar    1  UNL1        0.1930
     23 N         140.9764  144.0515  161.7591 N.ar    1  UNL1       -0.1224
     24 N         140.5601  143.4635  163.0748 N.ar    1  UNL1       -0.1328
     25 C         140.2192  142.0201  162.8502 C.ar    1  UNL1        0.1432
     26 N         140.4248  141.7161  161.3958 N.ar    1  UNL1       -0.2918
     27 C         140.2015  140.3894  160.7323 C.3     1  UNL1        0.1337
     28 C         139.7543  141.0509  163.8964 C.3     1  UNL1        0.0588
     29 C         139.4207  139.6057  163.6734 C.3     1  UNL1        0.0075
     30 C         139.0016  139.0183  164.9885 C.3     1  UNL1        0.0005
     31 C         139.0761  140.1007  166.0243 C.3     1  UNL1        0.0005
     32 C         139.5413  141.3569  165.3494 C.3     1  UNL1        0.0075
@<TRIPOS>BOND
     1    12    13    1
     2    13    14   ar
     3    14    15   ar
     4    15     1    1
     5     1     2   ar
     6     2     3   ar
     7     3     4   ar
     8     4     5   ar
     9     5     6   ar
    10     5     7    1
    11     7     8    1
    12     8     9    1
    13     9    18    1
    14    18    19    1
    15    19    20    1
    16    20    21    1
    17    21    22    1
    18    22    23   ar
    19    23    24   ar
    20    24    25   ar
    21    25    28    1
    22    28    29    1
    23    29    30    1
    24    30    31    1
    25    31    32    1
    26    25    26   ar
    27    26    27    1
    28     9    10    1
    29    10    11    1
    30    15    16   ar
    31    16    17   ar
    32    17    13   ar
    33     6     1   ar
    34    26    22   ar
    35    11     4    1
    36    32    28    1
@<TRIPOS>MOLECULE
*****
 32 36 0 0 0
SMALL
GASTEIGER

@<TRIPOS>ATOM
      1 C         139.9428  140.8128  165.6820 C.ar    1  UNL1        0.0206
      2 C         138.6824  140.2120  165.1339 C.ar    1  UNL1        0.0013
      3 C         138.6311  139.7477  163.7084 C.ar    1  UNL1       -0.0045
      4 C         139.8402  139.8842  162.8312 C.ar    1  UNL1       -0.0247
      5 C         141.1005  140.4849  163.3794 C.ar    1  UNL1       -0.0246
      6 C         141.1519  140.9492  164.8047 C.ar    1  UNL1       -0.0029
      7 C         142.4090  140.7115  162.6818 C.3     1  UNL1        0.0433
      8 C         142.7801  140.3932  161.2636 C.3     1  UNL1        0.0768
      9 N         141.9346  139.7699  160.1930 N.3     1  UNL1       -0.2720
     10 C         140.5090  139.3107  160.2759 C.3     1  UNL1        0.0768
     11 C         139.5769  139.3616  161.4500 C.3     1  UNL1        0.0433
     12 C         140.7148  143.8031  169.9648 C.3     1  UNL1        0.0754
     13 C         140.3489  142.6516  169.0761 C.ar    1  UNL1        0.1548
     14 C         140.4707  142.6180  167.5813 C.ar    1  UNL1        0.0580
     15 C         139.9941  141.2771  167.1074 C.ar    1  UNL1        0.1227
     16 N         139.5777  140.4818  168.3092 N.ar    1  UNL1       -0.0774
     17 O         139.7970  141.3313  169.5258 O.2     1  UNL1       -0.3578
     18 C         142.6030  139.5806  158.8636 C.3     1  UNL1        0.0730
     19 C         142.2970  140.5147  157.7304 C.3     1  UNL1        0.0294
     20 C         142.6497  141.9685  157.8406 C.3     1  UNL1        0.0666
     21 S         141.6029  142.9659  158.2397 S.3     1  UNL1       -0.0756
     22 C         141.4960  143.4100  159.6684 C.ar    1  UNL1        0.1930
     23 N         142.6006  144.0017  160.4928 N.ar    1  UNL1       -0.1224
     24 N         142.0531  144.2977  161.8576 N.ar    1  UNL1       -0.1328
     25 C         140.6100  143.8889  161.8766 C.ar    1  UNL1        0.1432
     26 N         140.2657  143.3402  160.5236 N.ar    1  UNL1       -0.2918
     27 C         138.9262  142.8142  160.1003 C.3     1  UNL1        0.1337
     28 C         139.6753  144.0078  163.0437 C.3     1  UNL1        0.0588
     29 C         138.3084  143.3985  163.1443 C.3     1  UNL1        0.0075
     30 C         137.7316  143.7710  164.4779 C.3     1  UNL1        0.0005
     31 C         138.7421  144.6107  165.2017 C.3     1  UNL1        0.0005
     32 C         139.9434  144.7570  164.3153 C.3     1  UNL1        0.0075
@<TRIPOS>BOND
     1    12    13    1
     2    13    14   ar
     3    14    15   ar
     4    15     1    1
     5     1     2   ar
     6     2     3   ar
     7     3     4   ar
     8     4     5   ar
     9     5     6   ar
    10     5     7    1
    11     7     8    1
    12     8     9    1
    13     9    18    1
    14    18    19    1
    15    19    20    1
    16    20    21    1
    17    21    22    1
    18    22    23   ar
    19    23    24   ar
    20    24    25   ar
    21    25    28    1
    22    28    29    1
    23    29    30    1
    24    30    31    1
    25    31    32    1
    26    25    26   ar
    27    26    27    1
    28     9    10    1
    29    10    11    1
    30    15    16   ar
    31    16    17   ar
    32    17    13   ar
    33     6     1   ar
    34    26    22   ar
    35    11     4    1
    36    32    28    1
