@<TRIPOS>MOLECULE
*****
 22 24 0 0 0
SMALL
GASTEIGER

@<TRIPOS>ATOM
      1 C         143.1079  142.2333  165.9422 C.2     1  UNL1        0.2495
      2 O         144.4024  142.1663  165.1873 O.2     1  UNL1       -0.2699
      3 N         141.9294  142.9464  165.3483 N.am    1  UNL1       -0.2763
      4 C         142.5663  140.1531  167.4015 C.ar    1  UNL1        0.0296
      5 C         142.4502  139.5070  168.7502 C.ar    1  UNL1        0.0063
      6 C         142.7598  140.2950  169.9884 C.ar    1  UNL1        0.0005
      7 C         143.1854  141.7291  169.8779 C.ar    1  UNL1        0.0002
      8 C         143.3014  142.3753  168.5291 C.ar    1  UNL1        0.0050
      9 C         142.9919  141.5872  167.2909 C.ar    1  UNL1        0.0592
     10 C         143.2450  138.3625  165.6457 C.3     1  UNL1        0.0742
     11 S         142.2567  139.3651  166.1632 S.3     1  UNL1       -0.1126
     12 C         142.0455  143.5925  163.9995 C.3     1  UNL1        0.0927
     13 C         141.7764  142.9325  162.6796 C.3     1  UNL1        0.0383
     14 C         142.0156  143.9441  161.5982 C.3     1  UNL1        0.0704
     15 N         142.4327  145.2293  162.2498 N.3     1  UNL1       -0.2960
     16 C         142.4511  145.0120  163.7338 C.3     1  UNL1        0.0887
     17 H         141.7684  145.9673  162.0162 H       1  UNL1        0.1233
     18 C         140.6350  143.0135  166.1031 C.3     1  UNL1        0.0936
     19 C         139.3925  143.5021  165.4193 C.3     1  UNL1        0.0199
     20 C         138.3151  142.8636  164.5938 C.3     1  UNL1        0.0017
     21 C         137.6354  144.1931  164.4524 C.3     1  UNL1        0.0001
     22 C         138.7127  144.8318  165.2779 C.3     1  UNL1        0.0017
@<TRIPOS>BOND
     1    10    11    1
     2    11     4    1
     3     4     5   ar
     4     5     6   ar
     5     6     7   ar
     6     7     8   ar
     7     8     9   ar
     8     9     1    1
     9     1     2    2
    10     1     3   am
    11     3    18    1
    12    18    19    1
    13    19    20    1
    14    20    21    1
    15    21    22    1
    16    12     3    1
    17    12    13    1
    18    13    14    1
    19    14    15    1
    20    15    16    1
    21     9     4   ar
    22    22    19    1
    23    16    12    1
    24    15    17    1
@<TRIPOS>MOLECULE
*****
 22 24 0 0 0
SMALL
GASTEIGER

@<TRIPOS>ATOM
      1 C         142.9895  138.7077  166.3490 C.2     1  UNL1        0.2495
      2 O         144.1289  137.9953  167.0156 O.2     1  UNL1       -0.2699
      3 N         142.2202  139.7561  167.0967 N.am    1  UNL1       -0.2763
      4 C         143.3976  138.9608  163.7957 C.ar    1  UNL1        0.0296
      5 C         143.0275  138.6248  162.3814 C.ar    1  UNL1        0.0063
      6 C         141.8793  137.6996  162.1062 C.ar    1  UNL1        0.0005
      7 C         141.1012  137.1105  163.2452 C.ar    1  UNL1        0.0002
      8 C         141.4713  137.4465  164.6596 C.ar    1  UNL1        0.0050
      9 C         142.6194  138.3717  164.9348 C.ar    1  UNL1        0.0592
     10 C         144.3111  141.3643  164.1679 C.3     1  UNL1        0.0742
     11 S         144.5457  139.8860  164.0709 S.3     1  UNL1       -0.1126
     12 C         142.5903  140.0922  168.5110 C.3     1  UNL1        0.0927
     13 C         142.4561  139.1838  169.6971 C.3     1  UNL1        0.0383
     14 C         142.9425  139.9258  170.9065 C.3     1  UNL1        0.0704
     15 N         143.3773  141.2928  170.4680 N.3     1  UNL1       -0.2960
     16 C         143.1596  141.3956  168.9874 C.3     1  UNL1        0.0887
     17 H         144.3653  141.4273  170.6828 H       1  UNL1        0.1233
     18 C         141.0809  140.4685  166.4301 C.3     1  UNL1        0.0936
     19 C         139.6969  139.8935  166.4935 C.3     1  UNL1        0.0199
     20 C         138.6370  139.5663  165.4838 C.3     1  UNL1        0.0017
     21 C         137.7397  139.0804  166.5831 C.3     1  UNL1        0.0001
     22 C         138.7995  139.4076  167.5929 C.3     1  UNL1        0.0017
@<TRIPOS>BOND
     1    10    11    1
     2    11     4    1
     3     4     5   ar
     4     5     6   ar
     5     6     7   ar
     6     7     8   ar
     7     8     9   ar
     8     9     1    1
     9     1     2    2
    10     1     3   am
    11     3    18    1
    12    18    19    1
    13    19    20    1
    14    20    21    1
    15    21    22    1
    16    12     3    1
    17    12    13    1
    18    13    14    1
    19    14    15    1
    20    15    16    1
    21     9     4   ar
    22    22    19    1
    23    16    12    1
    24    15    17    1
@<TRIPOS>MOLECULE
*****
 22 24 0 0 0
SMALL
GASTEIGER

@<TRIPOS>ATOM
      1 C         140.7403  142.8391  165.9099 C.2     1  UNL1        0.2495
      2 O         139.7341  143.6436  165.1414 O.2     1  UNL1       -0.2699
      3 N         142.1440  142.7072  165.3978 N.am    1  UNL1       -0.2763
      4 C         139.7058  140.8087  167.1579 C.ar    1  UNL1        0.0296
      5 C         139.3083  140.1360  168.4383 C.ar    1  UNL1        0.0063
      6 C         139.5475  140.8211  169.7511 C.ar    1  UNL1        0.0005
      7 C         140.1842  142.1788  169.7835 C.ar    1  UNL1        0.0002
      8 C         140.5819  142.8515  168.5031 C.ar    1  UNL1        0.0050
      9 C         140.3427  142.1664  167.1903 C.ar    1  UNL1        0.0592
     10 C         138.2966  139.1990  165.6838 C.3     1  UNL1        0.0742
     11 S         139.4666  140.1236  165.8451 S.3     1  UNL1       -0.1126
     12 C         142.5415  143.3799  164.1174 C.3     1  UNL1        0.0927
     13 C         142.5880  142.7388  162.7621 C.3     1  UNL1        0.0383
     14 C         143.0376  143.7744  161.7746 C.3     1  UNL1        0.0704
     15 N         143.2690  145.0557  162.5195 N.3     1  UNL1       -0.2960
     16 C         142.9624  144.8118  163.9674 C.3     1  UNL1        0.0887
     17 H         142.6560  145.7843  162.1538 H       1  UNL1        0.1233
     18 C         143.1501  141.9027  166.1662 C.3     1  UNL1        0.0936
     19 C         143.1835  140.4098  166.0235 C.3     1  UNL1        0.0199
     20 C         143.4125  139.4578  164.8873 C.3     1  UNL1        0.0017
     21 C         143.2308  138.2987  165.8217 C.3     1  UNL1        0.0001
     22 C         143.0017  139.2507  166.9581 C.3     1  UNL1        0.0017
@<TRIPOS>BOND
     1    10    11    1
     2    11     4    1
     3     4     5   ar
     4     5     6   ar
     5     6     7   ar
     6     7     8   ar
     7     8     9   ar
     8     9     1    1
     9     1     2    2
    10     1     3   am
    11     3    18    1
    12    18    19    1
    13    19    20    1
    14    20    21    1
    15    21    22    1
    16    12     3    1
    17    12    13    1
    18    13    14    1
    19    14    15    1
    20    15    16    1
    21     9     4   ar
    22    22    19    1
    23    16    12    1
    24    15    17    1
@<TRIPOS>MOLECULE
*****
 22 24 0 0 0
SMALL
GASTEIGER

@<TRIPOS>ATOM
      1 C         140.3126  139.8228  165.6074 C.2     1  UNL1        0.2495
      2 O         141.4815  138.9273  165.3212 O.2     1  UNL1       -0.2699
      3 N         139.2336  139.9988  164.5804 N.am    1  UNL1       -0.2763
      4 C         140.8702  141.8853  167.0858 C.ar    1  UNL1        0.0296
      5 C         140.7805  142.6047  168.3989 C.ar    1  UNL1        0.0063
      6 C         140.0433  141.9812  169.5468 C.ar    1  UNL1        0.0005
      7 C         139.3959  140.6382  169.3816 C.ar    1  UNL1        0.0002
      8 C         139.4856  139.9187  168.0685 C.ar    1  UNL1        0.0050
      9 C         140.2228  140.5422  166.9205 C.ar    1  UNL1        0.0592
     10 C         143.1072  142.4961  165.9140 C.3     1  UNL1        0.0742
     11 S         141.6074  142.5088  165.9378 S.3     1  UNL1       -0.1126
     12 C         139.3234  139.2794  163.2673 C.3     1  UNL1        0.0927
     13 C         139.9634  139.8042  162.0163 C.3     1  UNL1        0.0383
     14 C         139.8245  138.7579  160.9505 C.3     1  UNL1        0.0704
     15 N         139.0987  137.5864  161.5427 N.3     1  UNL1       -0.2960
     16 C         138.7890  137.9087  162.9746 C.3     1  UNL1        0.0887
     17 H         139.6868  136.7544  161.4946 H       1  UNL1        0.1233
     18 C         138.0647  140.8943  164.8666 C.3     1  UNL1        0.0936
     19 C         137.9705  142.2383  164.2072 C.3     1  UNL1        0.0199
     20 C         138.1389  143.6575  164.6629 C.3     1  UNL1        0.0017
     21 C         137.8372  144.1390  163.2748 C.3     1  UNL1        0.0001
     22 C         137.6687  142.7199  162.8190 C.3     1  UNL1        0.0017
@<TRIPOS>BOND
     1    10    11    1
     2    11     4    1
     3     4     5   ar
     4     5     6   ar
     5     6     7   ar
     6     7     8   ar
     7     8     9   ar
     8     9     1    1
     9     1     2    2
    10     1     3   am
    11     3    18    1
    12    18    19    1
    13    19    20    1
    14    20    21    1
    15    21    22    1
    16    12     3    1
    17    12    13    1
    18    13    14    1
    19    14    15    1
    20    15    16    1
    21     9     4   ar
    22    22    19    1
    23    16    12    1
    24    15    17    1
@<TRIPOS>MOLECULE
*****
 22 24 0 0 0
SMALL
GASTEIGER

@<TRIPOS>ATOM
      1 C         140.8025  140.1344  167.2978 C.2     1  UNL1        0.2495
      2 O         140.8569  139.4707  168.6419 O.2     1  UNL1       -0.2699
      3 N         141.0354  141.6116  167.1808 N.am    1  UNL1       -0.2763
      4 C         141.6464  138.7687  165.2551 C.ar    1  UNL1        0.0296
      5 C         141.3590  137.9552  164.0281 C.ar    1  UNL1        0.0063
      6 C         139.9404  137.6940  163.6166 C.ar    1  UNL1        0.0005
      7 C         138.8091  138.2463  164.4322 C.ar    1  UNL1        0.0002
      8 C         139.0965  139.0598  165.6593 C.ar    1  UNL1        0.0050
      9 C         140.5151  139.3210  166.0708 C.ar    1  UNL1        0.0592
     10 C         143.7870  138.0445  166.5370 C.3     1  UNL1        0.0742
     11 S         143.0650  139.0299  165.6665 S.3     1  UNL1       -0.1126
     12 C         141.3228  142.4251  168.4079 C.3     1  UNL1        0.0927
     13 C         142.6124  142.4399  169.1738 C.3     1  UNL1        0.0383
     14 C         142.4576  143.3905  170.3238 C.3     1  UNL1        0.0704
     15 N         141.0723  143.9632  170.2686 N.3     1  UNL1       -0.2960
     16 C         140.3710  143.3665  169.0845 C.3     1  UNL1        0.0887
     17 H         141.1206  144.9771  170.1676 H       1  UNL1        0.1233
     18 C         140.9810  142.2753  165.8367 C.3     1  UNL1        0.0936
     19 C         139.7188  142.9464  165.3822 C.3     1  UNL1        0.0199
     20 C         138.4666  142.4942  164.6912 C.3     1  UNL1        0.0017
     21 C         137.9338  143.8954  164.7394 C.3     1  UNL1        0.0001
     22 C         139.1860  144.3478  165.4304 C.3     1  UNL1        0.0017
@<TRIPOS>BOND
     1    10    11    1
     2    11     4    1
     3     4     5   ar
     4     5     6   ar
     5     6     7   ar
     6     7     8   ar
     7     8     9   ar
     8     9     1    1
     9     1     2    2
    10     1     3   am
    11     3    18    1
    12    18    19    1
    13    19    20    1
    14    20    21    1
    15    21    22    1
    16    12     3    1
    17    12    13    1
    18    13    14    1
    19    14    15    1
    20    15    16    1
    21     9     4   ar
    22    22    19    1
    23    16    12    1
    24    15    17    1
@<TRIPOS>MOLECULE
*****
 22 24 0 0 0
SMALL
GASTEIGER

@<TRIPOS>ATOM
      1 C         142.7102  142.2161  166.9529 C.2     1  UNL1        0.2495
      2 O         143.5357  142.5064  168.1713 O.2     1  UNL1       -0.2699
      3 N         141.2285  142.0202  167.0800 N.am    1  UNL1       -0.2763
      4 C         143.7355  140.7809  165.0452 C.ar    1  UNL1        0.0296
      5 C         144.3918  140.6866  163.6997 C.ar    1  UNL1        0.0063
      6 C         144.6791  141.9331  162.9164 C.ar    1  UNL1        0.0005
      7 C         144.3101  143.2740  163.4785 C.ar    1  UNL1        0.0002
      8 C         143.6538  143.3683  164.8240 C.ar    1  UNL1        0.0050
      9 C         143.3665  142.1218  165.6074 C.ar    1  UNL1        0.0592
     10 C         142.4726  138.5249  165.3006 C.3     1  UNL1        0.0742
     11 S         143.4482  139.5344  165.8286 S.3     1  UNL1       -0.1126
     12 C         140.5723  142.1145  168.4256 C.3     1  UNL1        0.0927
     13 C         140.4689  143.3488  169.2716 C.3     1  UNL1        0.0383
     14 C         139.7369  142.9882  170.5302 C.3     1  UNL1        0.0704
     15 N         139.3879  141.5309  170.4621 N.3     1  UNL1       -0.2960
     16 C         139.9042  140.9910  169.1614 C.3     1  UNL1        0.0887
     17 H         138.3755  141.4149  170.5076 H       1  UNL1        0.1233
     18 C         140.4031  141.7299  165.8617 C.3     1  UNL1        0.0936
     19 C         139.4122  142.7423  165.3685 C.3     1  UNL1        0.0199
     20 C         138.1420  142.6830  164.5728 C.3     1  UNL1        0.0017
     21 C         138.0108  144.1739  164.6710 C.3     1  UNL1        0.0001
     22 C         139.2810  144.2333  165.4667 C.3     1  UNL1        0.0017
@<TRIPOS>BOND
     1    10    11    1
     2    11     4    1
     3     4     5   ar
     4     5     6   ar
     5     6     7   ar
     6     7     8   ar
     7     8     9   ar
     8     9     1    1
     9     1     2    2
    10     1     3   am
    11     3    18    1
    12    18    19    1
    13    19    20    1
    14    20    21    1
    15    21    22    1
    16    12     3    1
    17    12    13    1
    18    13    14    1
    19    14    15    1
    20    15    16    1
    21     9     4   ar
    22    22    19    1
    23    16    12    1
    24    15    17    1
@<TRIPOS>MOLECULE
*****
 22 24 0 0 0
SMALL
GASTEIGER

@<TRIPOS>ATOM
      1 C         139.9504  140.0119  166.1021 C.2     1  UNL1        0.2495
      2 O         138.6213  139.7094  165.4759 O.2     1  UNL1       -0.2699
      3 N         141.2114  139.5061  165.4665 N.am    1  UNL1       -0.2763
      4 C         140.3164  142.2889  167.2987 C.ar    1  UNL1        0.0296
      5 C         140.3844  143.0971  168.5604 C.ar    1  UNL1        0.0063
      6 C         140.1544  142.4367  169.8874 C.ar    1  UNL1        0.0005
      7 C         139.8564  140.9681  169.9527 C.ar    1  UNL1        0.0002
      8 C         139.7884  140.1598  168.6909 C.ar    1  UNL1        0.0050
      9 C         140.0184  140.8202  167.3639 C.ar    1  UNL1        0.0592
     10 C         139.4861  143.8281  165.3774 C.3     1  UNL1        0.0742
     11 S         140.5465  142.9492  165.9716 S.3     1  UNL1       -0.1126
     12 C         141.1434  138.6978  164.2047 C.3     1  UNL1        0.0927
     13 C         140.9728  139.2418  162.8173 C.3     1  UNL1        0.0383
     14 C         140.9579  138.0839  161.8640 C.3     1  UNL1        0.0704
     15 N         141.1194  136.8241  162.6622 N.3     1  UNL1       -0.2960
     16 C         141.2340  137.2036  164.1089 C.3     1  UNL1        0.0887
     17 H         141.9622  136.3320  162.3656 H       1  UNL1        0.1233
     18 C         142.5405  139.8086  166.0927 C.3     1  UNL1        0.0936
     19 C         143.7031  140.2033  165.2310 C.3     1  UNL1        0.0199
     20 C         144.8006  139.4627  164.5261 C.3     1  UNL1        0.0017
     21 C         145.3473  140.7616  164.0124 C.3     1  UNL1        0.0001
     22 C         144.2498  141.5023  164.7173 C.3     1  UNL1        0.0017
@<TRIPOS>BOND
     1    10    11    1
     2    11     4    1
     3     4     5   ar
     4     5     6   ar
     5     6     7   ar
     6     7     8   ar
     7     8     9   ar
     8     9     1    1
     9     1     2    2
    10     1     3   am
    11     3    18    1
    12    18    19    1
    13    19    20    1
    14    20    21    1
    15    21    22    1
    16    12     3    1
    17    12    13    1
    18    13    14    1
    19    14    15    1
    20    15    16    1
    21     9     4   ar
    22    22    19    1
    23    16    12    1
    24    15    17    1
@<TRIPOS>MOLECULE
*****
 22 24 0 0 0
SMALL
GASTEIGER

@<TRIPOS>ATOM
      1 C         141.8427  142.4544  166.4354 C.2     1  UNL1        0.2495
      2 O         143.2939  142.0834  166.3545 O.2     1  UNL1       -0.2699
      3 N         141.2185  143.2817  165.3510 N.am    1  UNL1       -0.2763
      4 C         140.3598  140.6493  167.5725 C.ar    1  UNL1        0.0296
      5 C         139.5328  140.1929  168.7377 C.ar    1  UNL1        0.0063
      6 C         139.3618  141.0852  169.9313 C.ar    1  UNL1        0.0005
      7 C         140.0177  142.4339  169.9595 C.ar    1  UNL1        0.0002
      8 C         140.8447  142.8903  168.7942 C.ar    1  UNL1        0.0050
      9 C         141.0157  141.9980  167.6007 C.ar    1  UNL1        0.0592
     10 C         139.4053  139.5872  165.4020 C.3     1  UNL1        0.0742
     11 S         140.5308  139.7570  166.3789 S.3     1  UNL1       -0.1126
     12 C         142.0455  143.7380  164.1857 C.3     1  UNL1        0.0927
     13 C         142.5006  142.8843  163.0394 C.3     1  UNL1        0.0383
     14 C         143.2989  143.7469  162.1074 C.3     1  UNL1        0.0704
     15 N         143.3373  145.1338  162.6777 N.3     1  UNL1       -0.2960
     16 C         142.5626  145.1282  163.9622 C.3     1  UNL1        0.0887
     17 H         142.9143  145.7898  162.0212 H       1  UNL1        0.1233
     18 C         139.7674  143.6527  165.4319 C.3     1  UNL1        0.0936
     19 C         138.8852  143.4967  164.2288 C.3     1  UNL1        0.0199
     20 C         138.6987  144.2503  162.9453 C.3     1  UNL1        0.0017
     21 C         137.6376  143.2761  162.5274 C.3     1  UNL1        0.0001
     22 C         137.8239  142.5224  163.8108 C.3     1  UNL1        0.0017
@<TRIPOS>BOND
     1    10    11    1
     2    11     4    1
     3     4     5   ar
     4     5     6   ar
     5     6     7   ar
     6     7     8   ar
     7     8     9   ar
     8     9     1    1
     9     1     2    2
    10     1     3   am
    11     3    18    1
    12    18    19    1
    13    19    20    1
    14    20    21    1
    15    21    22    1
    16    12     3    1
    17    12    13    1
    18    13    14    1
    19    14    15    1
    20    15    16    1
    21     9     4   ar
    22    22    19    1
    23    16    12    1
    24    15    17    1
@<TRIPOS>MOLECULE
*****
 22 24 0 0 0
SMALL
GASTEIGER

@<TRIPOS>ATOM
      1 C         141.3892  141.7695  164.8619 C.2     1  UNL1        0.2495
      2 O         141.7961  143.1811  165.1654 O.2     1  UNL1       -0.2699
      3 N         140.1849  141.5033  164.0082 N.am    1  UNL1       -0.2763
      4 C         141.9952  140.1927  166.8358 C.ar    1  UNL1        0.0296
      5 C         142.7925  139.0475  167.3860 C.ar    1  UNL1        0.0063
      6 C         143.7813  138.3339  166.5124 C.ar    1  UNL1        0.0005
      7 C         143.9727  138.7655  165.0887 C.ar    1  UNL1        0.0002
      8 C         143.1753  139.9107  164.5384 C.ar    1  UNL1        0.0050
      9 C         142.1865  140.6244  165.4120 C.ar    1  UNL1        0.0592
     10 C         140.2198  140.1411  168.7319 C.3     1  UNL1        0.0742
     11 S         141.0064  140.9063  167.7094 S.3     1  UNL1       -0.1126
     12 C         139.3875  142.6486  163.4580 C.3     1  UNL1        0.0927
     13 C         138.1102  143.1886  164.0296 C.3     1  UNL1        0.0383
     14 C         137.6607  144.3286  163.1645 C.3     1  UNL1        0.0704
     15 N         138.6604  144.4932  162.0583 N.3     1  UNL1       -0.2960
     16 C         139.7275  143.4548  162.2397 C.3     1  UNL1        0.0887
     17 H         139.0732  145.4249  162.1005 H       1  UNL1        0.1233
     18 C         139.7779  140.0918  163.7047 C.3     1  UNL1        0.0936
     19 C         139.1023  139.2633  164.7569 C.3     1  UNL1        0.0199
     20 C         139.1889  137.8322  165.1978 C.3     1  UNL1        0.0017
     21 C         138.1468  138.0917  166.2448 C.3     1  UNL1        0.0001
     22 C         138.0600  139.5228  165.8040 C.3     1  UNL1        0.0017
@<TRIPOS>BOND
     1    10    11    1
     2    11     4    1
     3     4     5   ar
     4     5     6   ar
     5     6     7   ar
     6     7     8   ar
     7     8     9   ar
     8     9     1    1
     9     1     2    2
    10     1     3   am
    11     3    18    1
    12    18    19    1
    13    19    20    1
    14    20    21    1
    15    21    22    1
    16    12     3    1
    17    12    13    1
    18    13    14    1
    19    14    15    1
    20    15    16    1
    21     9     4   ar
    22    22    19    1
    23    16    12    1
    24    15    17    1
