@<TRIPOS>MOLECULE
*****
 32 37 0 0 0
SMALL
GASTEIGER

@<TRIPOS>ATOM
      1 C         137.1443  141.0633  156.4177 C.3     1  UNL1        0.0181
      2 C         137.9960  142.2436  156.7806 C.3     1  UNL1        0.0036
      3 C         138.8695  143.2809  157.4217 C.3     1  UNL1        0.0227
      4 C         139.1523  142.8437  158.8284 C.3     1  UNL1        0.0870
      5 C         138.4535  141.5361  159.0568 C.3     1  UNL1        0.0227
      6 C         137.7389  141.1653  157.7911 C.3     1  UNL1        0.0036
      7 N         139.9872  143.5840  159.8308 N.ar    1  UNL1       -0.3109
      8 C         141.3432  144.1757  159.5837 C.ar    1  UNL1        0.1785
      9 N         141.8067  144.8200  160.8565 N.ar    1  UNL1       -0.2239
     10 C         140.7372  144.6265  161.8902 C.ar    1  UNL1        0.1011
     11 C         140.6420  145.0471  163.3269 C.ar    1  UNL1        0.0526
     12 C         139.4222  144.7039  164.1297 C.ar    1  UNL1        0.1690
     13 F         139.3271  145.1246  165.5663 F       1  UNL1       -0.2017
     14 C         138.2977  143.9401  163.4958 C.ar    1  UNL1        0.1689
     15 F         137.0779  143.5968  164.2985 F       1  UNL1       -0.2017
     16 C         138.3929  143.5194  162.0591 C.ar    1  UNL1        0.0507
     17 C         139.6127  143.8626  161.2563 C.ar    1  UNL1        0.0813
     18 C         136.3094  140.3231  155.4153 C.3     1  UNL1        0.0717
     19 O         134.3416  139.4602  157.5089 O.2     1  UNL1       -0.2701
     20 C         133.8710  140.2234  156.3064 C.2     1  UNL1        0.2458
     21 N         134.8548  140.6548  155.2596 N.am    1  UNL1       -0.3025
     22 H         134.5459  141.1557  154.4704 H       1  UNL1        0.1497
     23 C         132.4164  140.5551  156.1507 C.ar    1  UNL1        0.0534
     24 C         131.3846  139.7818  156.9170 C.ar    1  UNL1        0.0054
     25 C         129.9300  140.1135  156.7613 C.ar    1  UNL1        0.0115
     26 C         129.5073  141.2186  155.8393 C.ar    1  UNL1        0.0577
     27 CL        128.0528  141.5504  155.6836 Cl      1  UNL1       -0.0822
     28 C         130.5392  141.9919  155.0729 C.ar    1  UNL1        0.0115
     29 C         131.9937  141.6601  155.2286 C.ar    1  UNL1        0.0054
     30 C         136.9290  139.2511  154.5685 C.3     1  UNL1        0.0180
     31 C         137.0758  137.8023  154.2088 C.3     1  UNL1        0.0017
     32 C         137.8552  138.8433  153.4613 C.3     1  UNL1        0.0017
@<TRIPOS>BOND
     1    19    20    2
     2    20    21   am
     3    18    21    1
     4    18    30    1
     5    30    31    1
     6    31    32    1
     7     1    18    1
     8     1     2    1
     9     2     3    1
    10     3     4    1
    11     4     7    1
    12     7     8   ar
    13     8     9   ar
    14     9    10   ar
    15    10    11   ar
    16    11    12   ar
    17    12    13    1
    18    12    14   ar
    19    14    15    1
    20    14    16   ar
    21    16    17   ar
    22     4     5    1
    23     6     5    1
    24    20    23    1
    25    23    24   ar
    26    24    25   ar
    27    25    26   ar
    28    26    27    1
    29    26    28   ar
    30    28    29   ar
    31    32    30    1
    32     6     1    1
    33    29    23   ar
    34     6     2    1
    35    17     7   ar
    36    17    10   ar
    37    21    22    1
@<TRIPOS>MOLECULE
*****
 32 37 0 0 0
SMALL
GASTEIGER

@<TRIPOS>ATOM
      1 C         142.2722  137.8572  157.9227 C.3     1  UNL1        0.0181
      2 C         142.3517  138.5890  159.2297 C.3     1  UNL1        0.0036
      3 C         142.1230  139.3610  160.4953 C.3     1  UNL1        0.0227
      4 C         140.6652  139.7063  160.5706 C.3     1  UNL1        0.0870
      5 C         139.9929  139.1477  159.3515 C.3     1  UNL1        0.0227
      6 C         141.0353  138.4571  158.5228 C.3     1  UNL1        0.0036
      7 N         139.9970  140.4752  161.6716 N.ar    1  UNL1       -0.3109
      8 C         139.7452  141.9538  161.6874 C.ar    1  UNL1        0.1785
      9 N         139.0559  142.2928  162.9758 N.ar    1  UNL1       -0.2239
     10 C         138.8816  141.0238  163.7562 C.ar    1  UNL1        0.1011
     11 C         138.2685  140.7460  165.0967 C.ar    1  UNL1        0.0526
     12 C         138.2369  139.3447  165.6312 C.ar    1  UNL1        0.1690
     13 F         137.6238  139.0670  166.9716 F       1  UNL1       -0.2017
     14 C         138.8186  138.2213  164.8251 C.ar    1  UNL1        0.1689
     15 F         138.7870  136.8202  165.3596 F       1  UNL1       -0.2017
     16 C         139.4317  138.4992  163.4846 C.ar    1  UNL1        0.0507
     17 C         139.4633  139.9004  162.9502 C.ar    1  UNL1        0.0813
     18 C         142.9404  137.0883  156.8217 C.3     1  UNL1        0.0717
     19 O         141.4636  134.7263  155.7081 O.2     1  UNL1       -0.2701
     20 C         142.7076  134.5183  156.5201 C.2     1  UNL1        0.2458
     21 N         143.4460  135.6992  157.0768 N.am    1  UNL1       -0.3025
     22 H         144.2624  135.5627  157.6098 H       1  UNL1        0.1497
     23 C         143.2131  133.1293  156.7752 C.ar    1  UNL1        0.0534
     24 C         142.4757  131.9484  156.2170 C.ar    1  UNL1        0.0054
     25 C         142.9812  130.5594  156.4721 C.ar    1  UNL1        0.0115
     26 C         144.2242  130.3513  157.2855 C.ar    1  UNL1        0.0577
     27 CL        144.7298  128.9623  157.5406 Cl      1  UNL1       -0.0822
     28 C         144.9617  131.5322  157.8437 C.ar    1  UNL1        0.0115
     29 C         144.4561  132.9212  157.5885 C.ar    1  UNL1        0.0054
     30 C         143.1033  137.7084  155.4656 C.3     1  UNL1        0.0180
     31 C         143.8814  138.5707  154.5165 C.3     1  UNL1        0.0017
     32 C         142.6073  137.9199  154.0659 C.3     1  UNL1        0.0017
@<TRIPOS>BOND
     1    19    20    2
     2    20    21   am
     3    18    21    1
     4    18    30    1
     5    30    31    1
     6    31    32    1
     7     1    18    1
     8     1     2    1
     9     2     3    1
    10     3     4    1
    11     4     7    1
    12     7     8   ar
    13     8     9   ar
    14     9    10   ar
    15    10    11   ar
    16    11    12   ar
    17    12    13    1
    18    12    14   ar
    19    14    15    1
    20    14    16   ar
    21    16    17   ar
    22     4     5    1
    23     6     5    1
    24    20    23    1
    25    23    24   ar
    26    24    25   ar
    27    25    26   ar
    28    26    27    1
    29    26    28   ar
    30    28    29   ar
    31    32    30    1
    32     6     1    1
    33    29    23   ar
    34     6     2    1
    35    17     7   ar
    36    17    10   ar
    37    21    22    1
@<TRIPOS>MOLECULE
*****
 32 37 0 0 0
SMALL
GASTEIGER

@<TRIPOS>ATOM
      1 C         140.4894  145.1104  157.9185 C.3     1  UNL1        0.0181
      2 C         139.9545  144.1035  158.8932 C.3     1  UNL1        0.0036
      3 C         139.4764  143.3205  160.0800 C.3     1  UNL1        0.0227
      4 C         139.6363  144.1811  161.2981 C.3     1  UNL1        0.0870
      5 C         140.2133  145.4959  160.8642 C.3     1  UNL1        0.0227
      6 C         140.4099  145.4480  159.3779 C.3     1  UNL1        0.0036
      7 N         139.2816  143.7946  162.7034 N.ar    1  UNL1       -0.3109
      8 C         137.8975  143.7327  163.2781 C.ar    1  UNL1        0.1785
      9 N         138.0092  143.3020  164.7105 N.ar    1  UNL1       -0.2239
     10 C         139.4624  143.0977  165.0212 C.ar    1  UNL1        0.1011
     11 C         140.1712  142.6739  166.2733 C.ar    1  UNL1        0.0526
     12 C         141.6664  142.5544  166.2850 C.ar    1  UNL1        0.1690
     13 F         142.3752  142.1305  167.5372 F       1  UNL1       -0.2017
     14 C         142.4528  142.8588  165.0445 C.ar    1  UNL1        0.1689
     15 F         143.9480  142.7394  165.0561 F       1  UNL1       -0.2017
     16 C         141.7440  143.2827  163.7923 C.ar    1  UNL1        0.0507
     17 C         140.2488  143.4022  163.7807 C.ar    1  UNL1        0.0813
     18 C         140.8440  145.4968  156.5132 C.3     1  UNL1        0.0717
     19 O         138.2673  146.4245  155.2885 O.2     1  UNL1       -0.2701
     20 C         139.4074  147.3850  155.4545 C.2     1  UNL1        0.2458
     21 N         140.6957  146.9212  156.0669 N.am    1  UNL1       -0.3025
     22 H         141.4440  147.5517  156.1759 H       1  UNL1        0.1497
     23 C         139.2591  148.8094  155.0082 C.ar    1  UNL1        0.0534
     24 C         139.7923  149.2363  153.6728 C.ar    1  UNL1        0.0054
     25 C         139.6440  150.6607  153.2265 C.ar    1  UNL1        0.0115
     26 C         138.9624  151.6581  154.1156 C.ar    1  UNL1        0.0577
     27 CL        138.8140  153.0825  153.6694 Cl      1  UNL1       -0.0822
     28 C         138.4292  151.2312  155.4511 C.ar    1  UNL1        0.0115
     29 C         138.5776  149.8068  155.8974 C.ar    1  UNL1        0.0054
     30 C         141.3470  144.4589  155.5542 C.3     1  UNL1        0.0180
     31 C         141.1275  143.5794  154.3591 C.3     1  UNL1        0.0017
     32 C         142.4378  143.5407  155.0882 C.3     1  UNL1        0.0017
@<TRIPOS>BOND
     1    19    20    2
     2    20    21   am
     3    18    21    1
     4    18    30    1
     5    30    31    1
     6    31    32    1
     7     1    18    1
     8     1     2    1
     9     2     3    1
    10     3     4    1
    11     4     7    1
    12     7     8   ar
    13     8     9   ar
    14     9    10   ar
    15    10    11   ar
    16    11    12   ar
    17    12    13    1
    18    12    14   ar
    19    14    15    1
    20    14    16   ar
    21    16    17   ar
    22     4     5    1
    23     6     5    1
    24    20    23    1
    25    23    24   ar
    26    24    25   ar
    27    25    26   ar
    28    26    27    1
    29    26    28   ar
    30    28    29   ar
    31    32    30    1
    32     6     1    1
    33    29    23   ar
    34     6     2    1
    35    17     7   ar
    36    17    10   ar
    37    21    22    1
@<TRIPOS>MOLECULE
*****
 32 37 0 0 0
SMALL
GASTEIGER

@<TRIPOS>ATOM
      1 C         140.3275  138.2797  157.7699 C.3     1  UNL1        0.0181
      2 C         139.5065  138.7781  158.9222 C.3     1  UNL1        0.0036
      3 C         138.9620  139.3727  160.1871 C.3     1  UNL1        0.0227
      4 C         140.1126  139.9364  160.9671 C.3     1  UNL1        0.0870
      5 C         141.3682  139.6903  160.1843 C.3     1  UNL1        0.0227
      6 C         140.9937  138.9744  158.9204 C.3     1  UNL1        0.0036
      7 N         140.0232  140.6253  162.2965 N.ar    1  UNL1       -0.3109
      8 C         140.3692  142.0587  162.5718 C.ar    1  UNL1        0.1785
      9 N         140.1319  142.3209  164.0295 N.ar    1  UNL1       -0.2239
     10 C         139.6394  141.0497  164.6552 C.ar    1  UNL1        0.1011
     11 C         139.2434  140.7110  166.0617 C.ar    1  UNL1        0.0526
     12 C         138.7802  139.3243  166.3973 C.ar    1  UNL1        0.1690
     13 F         138.3842  138.9857  167.8038 F       1  UNL1       -0.2017
     14 C         138.7130  138.2763  165.3262 C.ar    1  UNL1        0.1689
     15 F         138.2499  136.8897  165.6617 F       1  UNL1       -0.2017
     16 C         139.1090  138.6151  163.9196 C.ar    1  UNL1        0.0507
     17 C         139.5722  140.0017  163.5841 C.ar    1  UNL1        0.0813
     18 C         140.4168  137.5908  156.4405 C.3     1  UNL1        0.0717
     19 O         143.3762  137.2190  156.7628 O.2     1  UNL1       -0.2701
     20 C         142.4948  136.0327  156.5067 C.2     1  UNL1        0.2458
     21 N         141.0151  136.2185  156.3456 N.am    1  UNL1       -0.3025
     22 H         140.4367  135.4398  156.1775 H       1  UNL1        0.1497
     23 C         143.0931  134.6604  156.4118 C.ar    1  UNL1        0.0534
     24 C         142.9633  133.8717  155.1426 C.ar    1  UNL1        0.0054
     25 C         143.5617  132.4995  155.0477 C.ar    1  UNL1        0.0115
     26 C         144.2898  131.9160  156.2221 C.ar    1  UNL1        0.0577
     27 CL        144.8881  130.5438  156.1273 Cl      1  UNL1       -0.0822
     28 C         144.4196  132.7047  157.4914 C.ar    1  UNL1        0.0115
     29 C         143.8212  134.0769  157.5863 C.ar    1  UNL1        0.0054
     30 C         139.9078  138.2740  155.2060 C.3     1  UNL1        0.0180
     31 C         139.0200  138.2799  153.9969 C.3     1  UNL1        0.0017
     32 C         139.9139  139.4514  154.2767 C.3     1  UNL1        0.0017
@<TRIPOS>BOND
     1    19    20    2
     2    20    21   am
     3    18    21    1
     4    18    30    1
     5    30    31    1
     6    31    32    1
     7     1    18    1
     8     1     2    1
     9     2     3    1
    10     3     4    1
    11     4     7    1
    12     7     8   ar
    13     8     9   ar
    14     9    10   ar
    15    10    11   ar
    16    11    12   ar
    17    12    13    1
    18    12    14   ar
    19    14    15    1
    20    14    16   ar
    21    16    17   ar
    22     4     5    1
    23     6     5    1
    24    20    23    1
    25    23    24   ar
    26    24    25   ar
    27    25    26   ar
    28    26    27    1
    29    26    28   ar
    30    28    29   ar
    31    32    30    1
    32     6     1    1
    33    29    23   ar
    34     6     2    1
    35    17     7   ar
    36    17    10   ar
    37    21    22    1
@<TRIPOS>MOLECULE
*****
 32 37 0 0 0
SMALL
GASTEIGER

@<TRIPOS>ATOM
      1 C         140.9145  139.4497  158.7087 C.3     1  UNL1        0.0181
      2 C         140.4148  138.4147  157.7447 C.3     1  UNL1        0.0036
      3 C         140.2151  137.2891  156.7735 C.3     1  UNL1        0.0227
      4 C         141.5462  136.6391  156.5373 C.3     1  UNL1        0.0870
      5 C         142.5685  137.3630  157.3625 C.3     1  UNL1        0.0227
      6 C         141.8692  138.4604  158.1088 C.3     1  UNL1        0.0036
      7 N         141.8089  135.4704  155.6345 N.ar    1  UNL1       -0.3109
      8 C         141.1924  135.2419  154.2862 C.ar    1  UNL1        0.1785
      9 N         141.7367  133.9553  153.7399 N.ar    1  UNL1       -0.2239
     10 C         142.6895  133.3888  154.7504 C.ar    1  UNL1        0.1011
     11 C         143.5223  132.1412  154.7556 C.ar    1  UNL1        0.0526
     12 C         144.3997  131.8300  155.9318 C.ar    1  UNL1        0.1690
     13 F         145.2325  130.5824  155.9370 F       1  UNL1       -0.2017
     14 C         144.4443  132.7664  157.1027 C.ar    1  UNL1        0.1689
     15 F         145.3217  132.4553  158.2789 F       1  UNL1       -0.2017
     16 C         143.6115  134.0140  157.0975 C.ar    1  UNL1        0.0507
     17 C         142.7342  134.3252  155.9213 C.ar    1  UNL1        0.0813
     18 C         140.6518  140.6183  159.6115 C.3     1  UNL1        0.0717
     19 O         138.1307  139.2327  160.4627 O.2     1  UNL1       -0.2701
     20 C         139.1144  139.7003  161.4941 C.2     1  UNL1        0.2458
     21 N         140.3749  140.3931  161.0685 N.am    1  UNL1       -0.3025
     22 H         141.0205  140.7000  161.7454 H       1  UNL1        0.1497
     23 C         138.8376  139.4751  162.9510 C.ar    1  UNL1        0.0534
     24 C         138.3883  140.6164  163.8143 C.ar    1  UNL1        0.0054
     25 C         138.1114  140.3912  165.2713 C.ar    1  UNL1        0.0115
     26 C         138.2839  139.0245  165.8648 C.ar    1  UNL1        0.0577
     27 CL        138.0070  138.7992  167.3217 Cl      1  UNL1       -0.0822
     28 C         138.7331  137.8831  165.0015 C.ar    1  UNL1        0.0115
     29 C         139.0100  138.1084  163.5446 C.ar    1  UNL1        0.0054
     30 C         140.6658  142.0122  159.0576 C.3     1  UNL1        0.0180
     31 C         141.4275  143.2221  158.6038 C.3     1  UNL1        0.0017
     32 C         139.9285  143.2165  158.5518 C.3     1  UNL1        0.0017
@<TRIPOS>BOND
     1    19    20    2
     2    20    21   am
     3    18    21    1
     4    18    30    1
     5    30    31    1
     6    31    32    1
     7     1    18    1
     8     1     2    1
     9     2     3    1
    10     3     4    1
    11     4     7    1
    12     7     8   ar
    13     8     9   ar
    14     9    10   ar
    15    10    11   ar
    16    11    12   ar
    17    12    13    1
    18    12    14   ar
    19    14    15    1
    20    14    16   ar
    21    16    17   ar
    22     4     5    1
    23     6     5    1
    24    20    23    1
    25    23    24   ar
    26    24    25   ar
    27    25    26   ar
    28    26    27    1
    29    26    28   ar
    30    28    29   ar
    31    32    30    1
    32     6     1    1
    33    29    23   ar
    34     6     2    1
    35    17     7   ar
    36    17    10   ar
    37    21    22    1
@<TRIPOS>MOLECULE
*****
 32 37 0 0 0
SMALL
GASTEIGER

@<TRIPOS>ATOM
      1 C         140.1247  138.0373  156.9541 C.3     1  UNL1        0.0181
      2 C         140.1261  138.2024  158.4450 C.3     1  UNL1        0.0036
      3 C         139.9475  138.6171  159.8754 C.3     1  UNL1        0.0227
      4 C         139.0871  139.8457  159.8979 C.3     1  UNL1        0.0870
      5 C         138.7339  140.1902  158.4813 C.3     1  UNL1        0.0227
      6 C         139.3761  139.1746  157.5834 C.3     1  UNL1        0.0036
      7 N         138.6556  140.5976  161.1220 N.ar    1  UNL1       -0.3109
      8 C         138.1959  142.0248  161.1636 C.ar    1  UNL1        0.1785
      9 N         137.8643  142.3636  162.5867 N.ar    1  UNL1       -0.2239
     10 C         138.1191  141.1458  163.4246 C.ar    1  UNL1        0.1011
     11 C         137.9690  140.8898  164.8949 C.ar    1  UNL1        0.0526
     12 C         138.3080  139.5422  165.4600 C.ar    1  UNL1        0.1690
     13 F         138.1579  139.2862  166.9303 F       1  UNL1       -0.2017
     14 C         138.7971  138.4508  164.5547 C.ar    1  UNL1        0.1689
     15 F         139.1361  137.1033  165.1198 F       1  UNL1       -0.2017
     16 C         138.9472  138.7069  163.0844 C.ar    1  UNL1        0.0507
     17 C         138.6082  140.0544  162.5193 C.ar    1  UNL1        0.0813
     18 C         140.5562  137.2853  155.7301 C.3     1  UNL1        0.0717
     19 O         143.2585  136.0081  155.9880 O.2     1  UNL1       -0.2701
     20 C         142.0297  135.1523  155.9013 C.2     1  UNL1        0.2458
     21 N         140.6786  135.7908  155.7723 N.am    1  UNL1       -0.3025
     22 H         139.8721  135.2290  155.7154 H       1  UNL1        0.1497
     23 C         142.1521  133.6578  155.9436 C.ar    1  UNL1        0.0534
     24 C         143.0682  133.0082  156.9378 C.ar    1  UNL1        0.0054
     25 C         143.1906  131.5137  156.9800 C.ar    1  UNL1        0.0115
     26 C         142.3969  130.6690  156.0280 C.ar    1  UNL1        0.0577
     27 CL        142.5192  129.1746  156.0702 Cl      1  UNL1       -0.0822
     28 C         141.4807  131.3188  155.0337 C.ar    1  UNL1        0.0115
     29 C         141.3584  132.8132  154.9915 C.ar    1  UNL1        0.0054
     30 C         140.8653  138.0275  154.4638 C.3     1  UNL1        0.0180
     31 C         141.8575  138.4899  153.4382 C.3     1  UNL1        0.0017
     32 C         140.4086  138.8507  153.2961 C.3     1  UNL1        0.0017
@<TRIPOS>BOND
     1    19    20    2
     2    20    21   am
     3    18    21    1
     4    18    30    1
     5    30    31    1
     6    31    32    1
     7     1    18    1
     8     1     2    1
     9     2     3    1
    10     3     4    1
    11     4     7    1
    12     7     8   ar
    13     8     9   ar
    14     9    10   ar
    15    10    11   ar
    16    11    12   ar
    17    12    13    1
    18    12    14   ar
    19    14    15    1
    20    14    16   ar
    21    16    17   ar
    22     4     5    1
    23     6     5    1
    24    20    23    1
    25    23    24   ar
    26    24    25   ar
    27    25    26   ar
    28    26    27    1
    29    26    28   ar
    30    28    29   ar
    31    32    30    1
    32     6     1    1
    33    29    23   ar
    34     6     2    1
    35    17     7   ar
    36    17    10   ar
    37    21    22    1
@<TRIPOS>MOLECULE
*****
 32 37 0 0 0
SMALL
GASTEIGER

@<TRIPOS>ATOM
      1 C         142.4496  140.0666  161.6480 C.3     1  UNL1        0.0181
      2 C         142.6803  139.6541  160.2243 C.3     1  UNL1        0.0036
      3 C         142.6191  139.1286  158.8207 C.3     1  UNL1        0.0227
      4 C         141.2713  138.5019  158.6188 C.3     1  UNL1        0.0870
      5 C         140.4996  138.6400  159.8975 C.3     1  UNL1        0.0227
      6 C         141.3703  139.3522  160.8899 C.3     1  UNL1        0.0036
      7 N         140.7814  137.8512  157.3591 N.ar    1  UNL1       -0.3109
      8 C         139.5358  138.2141  156.6062 C.ar    1  UNL1        0.1785
      9 N         139.4357  137.3106  155.4131 N.ar    1  UNL1       -0.2239
     10 C         140.6193  136.3893  155.4286 C.ar    1  UNL1        0.1011
     11 C         141.0472  135.2893  154.5030 C.ar    1  UNL1        0.0526
     12 C         142.3068  134.5234  154.7800 C.ar    1  UNL1        0.1690
     13 F         142.7347  133.4234  153.8544 F       1  UNL1       -0.2017
     14 C         143.1385  134.8575  155.9828 C.ar    1  UNL1        0.1689
     15 F         144.3981  134.0916  156.2599 F       1  UNL1       -0.2017
     16 C         142.7106  135.9575  156.9085 C.ar    1  UNL1        0.0507
     17 C         141.4510  136.7234  156.6314 C.ar    1  UNL1        0.0813
     18 C         142.9397  140.7173  162.9074 C.3     1  UNL1        0.0717
     19 O         142.9718  138.5793  165.0118 O.2     1  UNL1       -0.2701
     20 C         142.0498  139.7543  165.1504 C.2     1  UNL1        0.2458
     21 N         142.0337  140.8233  164.0983 N.am    1  UNL1       -0.3025
     22 H         141.4286  141.5945  164.1894 H       1  UNL1        0.1497
     23 C         141.1439  139.8603  166.3413 C.ar    1  UNL1        0.0534
     24 C         139.7303  139.3664  166.2546 C.ar    1  UNL1        0.0054
     25 C         138.8243  139.4724  167.4455 C.ar    1  UNL1        0.0115
     26 C         139.3322  140.0723  168.7231 C.ar    1  UNL1        0.0577
     27 CL        138.4263  140.1783  169.9139 Cl      1  UNL1       -0.0822
     28 C         140.7459  140.5663  168.8097 C.ar    1  UNL1        0.0115
     29 C         141.6517  140.4603  167.6189 C.ar    1  UNL1        0.0054
     30 C         144.3355  141.2620  162.9763 C.3     1  UNL1        0.0180
     31 C         145.6613  141.3540  163.6719 C.3     1  UNL1        0.0017
     32 C         145.4276  142.1136  162.3998 C.3     1  UNL1        0.0017
@<TRIPOS>BOND
     1    19    20    2
     2    20    21   am
     3    18    21    1
     4    18    30    1
     5    30    31    1
     6    31    32    1
     7     1    18    1
     8     1     2    1
     9     2     3    1
    10     3     4    1
    11     4     7    1
    12     7     8   ar
    13     8     9   ar
    14     9    10   ar
    15    10    11   ar
    16    11    12   ar
    17    12    13    1
    18    12    14   ar
    19    14    15    1
    20    14    16   ar
    21    16    17   ar
    22     4     5    1
    23     6     5    1
    24    20    23    1
    25    23    24   ar
    26    24    25   ar
    27    25    26   ar
    28    26    27    1
    29    26    28   ar
    30    28    29   ar
    31    32    30    1
    32     6     1    1
    33    29    23   ar
    34     6     2    1
    35    17     7   ar
    36    17    10   ar
    37    21    22    1
@<TRIPOS>MOLECULE
*****
 32 37 0 0 0
SMALL
GASTEIGER

@<TRIPOS>ATOM
      1 C         144.3890  140.1642  156.3194 C.3     1  UNL1        0.0181
      2 C         143.9018  140.3196  157.7297 C.3     1  UNL1        0.0036
      3 C         143.4410  140.7818  159.0802 C.3     1  UNL1        0.0227
      4 C         143.4651  142.2816  159.0900 C.3     1  UNL1        0.0870
      5 C         143.9409  142.7463  157.7455 C.3     1  UNL1        0.0227
      6 C         144.2108  141.5337  156.9047 C.3     1  UNL1        0.0036
      7 N         143.0810  143.1620  160.2421 N.ar    1  UNL1       -0.3109
      8 C         142.0410  144.2426  160.2174 C.ar    1  UNL1        0.1785
      9 N         141.9866  144.8648  161.5812 N.ar    1  UNL1       -0.2239
     10 C         142.9930  144.1687  162.4487 C.ar    1  UNL1        0.1011
     11 C         143.3810  144.3573  163.8854 C.ar    1  UNL1        0.0526
     12 C         144.4453  143.4933  164.4944 C.ar    1  UNL1        0.1690
     13 F         144.8332  143.6818  165.9311 F       1  UNL1       -0.2017
     14 C         145.1216  142.4409  163.6668 C.ar    1  UNL1        0.1689
     15 F         146.1859  141.5769  164.2758 F       1  UNL1       -0.2017
     16 C         144.7336  142.2524  162.2301 C.ar    1  UNL1        0.0507
     17 C         143.6694  143.1163  161.6211 C.ar    1  UNL1        0.0813
     18 C         144.7731  139.2837  155.1675 C.3     1  UNL1        0.0717
     19 O         142.0531  138.0226  155.2753 O.2     1  UNL1       -0.2701
     20 C         143.2812  137.1636  155.3394 C.2     1  UNL1        0.2458
     21 N         144.6411  137.7941  155.2855 N.am    1  UNL1       -0.3025
     22 H         145.4470  137.2303  155.3275 H       1  UNL1        0.1497
     23 C         143.1491  135.6741  155.4574 C.ar    1  UNL1        0.0534
     24 C         142.7777  134.8566  154.2559 C.ar    1  UNL1        0.0054
     25 C         142.6457  133.3670  154.3739 C.ar    1  UNL1        0.0115
     26 C         142.8850  132.6951  155.6934 C.ar    1  UNL1        0.0577
     27 CL        142.7530  131.2056  155.8115 Cl      1  UNL1       -0.0822
     28 C         143.2564  133.5127  156.8949 C.ar    1  UNL1        0.0115
     29 C         143.3885  135.0022  156.7769 C.ar    1  UNL1        0.0054
     30 C         145.2893  139.8925  153.8975 C.3     1  UNL1        0.0180
     31 C         145.8513  139.7344  152.5158 C.3     1  UNL1        0.0017
     32 C         145.6213  141.1053  153.0796 C.3     1  UNL1        0.0017
@<TRIPOS>BOND
     1    19    20    2
     2    20    21   am
     3    18    21    1
     4    18    30    1
     5    30    31    1
     6    31    32    1
     7     1    18    1
     8     1     2    1
     9     2     3    1
    10     3     4    1
    11     4     7    1
    12     7     8   ar
    13     8     9   ar
    14     9    10   ar
    15    10    11   ar
    16    11    12   ar
    17    12    13    1
    18    12    14   ar
    19    14    15    1
    20    14    16   ar
    21    16    17   ar
    22     4     5    1
    23     6     5    1
    24    20    23    1
    25    23    24   ar
    26    24    25   ar
    27    25    26   ar
    28    26    27    1
    29    26    28   ar
    30    28    29   ar
    31    32    30    1
    32     6     1    1
    33    29    23   ar
    34     6     2    1
    35    17     7   ar
    36    17    10   ar
    37    21    22    1
@<TRIPOS>MOLECULE
*****
 32 37 0 0 0
SMALL
GASTEIGER

@<TRIPOS>ATOM
      1 C         140.2736  138.4494  158.2760 C.3     1  UNL1        0.0181
      2 C         141.0537  138.7689  159.5168 C.3     1  UNL1        0.0036
      3 C         141.5579  139.1924  160.8646 C.3     1  UNL1        0.0227
      4 C         140.4016  139.7563  161.6359 C.3     1  UNL1        0.0870
      5 C         139.1827  139.6814  160.7648 C.3     1  UNL1        0.0227
      6 C         139.5857  139.0711  159.4551 C.3     1  UNL1        0.0036
      7 N         140.4548  140.2998  163.0330 N.ar    1  UNL1       -0.3109
      8 C         141.0534  139.6123  164.2242 C.ar    1  UNL1        0.1785
      9 N         140.8872  140.5138  165.4115 N.ar    1  UNL1       -0.2239
     10 C         140.1859  141.7584  164.9541 C.ar    1  UNL1        0.1011
     11 C         139.7562  142.9950  165.6862 C.ar    1  UNL1        0.0526
     12 C         139.0592  144.0994  164.9483 C.ar    1  UNL1        0.1690
     13 F         138.6295  145.3360  165.6805 F       1  UNL1       -0.2017
     14 C         138.7919  143.9671  163.4783 C.ar    1  UNL1        0.1689
     15 F         138.0949  145.0715  162.7404 F       1  UNL1       -0.2017
     16 C         139.2216  142.7304  162.7461 C.ar    1  UNL1        0.0507
     17 C         139.9187  141.6261  163.4840 C.ar    1  UNL1        0.0813
     18 C         140.2206  137.9060  156.8790 C.3     1  UNL1        0.0717
     19 O         143.1802  137.4471  157.0533 O.2     1  UNL1       -0.2701
     20 C         142.2681  136.3208  156.6667 C.2     1  UNL1        0.2458
     21 N         140.7884  136.5502  156.5796 N.am    1  UNL1       -0.3025
     22 H         140.1897  135.8109  156.3259 H       1  UNL1        0.1497
     23 C         142.8359  134.9650  156.3673 C.ar    1  UNL1        0.0534
     24 C         142.5814  134.3226  155.0360 C.ar    1  UNL1        0.0054
     25 C         143.1492  132.9668  154.7366 C.ar    1  UNL1        0.0115
     26 C         143.9714  132.2536  155.7686 C.ar    1  UNL1        0.0577
     27 CL        144.5392  130.8978  155.4693 Cl      1  UNL1       -0.0822
     28 C         144.2259  132.8960  157.1000 C.ar    1  UNL1        0.0115
     29 C         143.6581  134.2517  157.3993 C.ar    1  UNL1        0.0054
     30 C         139.5998  138.7181  155.7813 C.3     1  UNL1        0.0180
     31 C         138.6423  139.7833  155.3358 C.3     1  UNL1        0.0017
     32 C         139.4820  139.0596  154.3254 C.3     1  UNL1        0.0017
@<TRIPOS>BOND
     1    19    20    2
     2    20    21   am
     3    18    21    1
     4    18    30    1
     5    30    31    1
     6    31    32    1
     7     1    18    1
     8     1     2    1
     9     2     3    1
    10     3     4    1
    11     4     7    1
    12     7     8   ar
    13     8     9   ar
    14     9    10   ar
    15    10    11   ar
    16    11    12   ar
    17    12    13    1
    18    12    14   ar
    19    14    15    1
    20    14    16   ar
    21    16    17   ar
    22     4     5    1
    23     6     5    1
    24    20    23    1
    25    23    24   ar
    26    24    25   ar
    27    25    26   ar
    28    26    27    1
    29    26    28   ar
    30    28    29   ar
    31    32    30    1
    32     6     1    1
    33    29    23   ar
    34     6     2    1
    35    17     7   ar
    36    17    10   ar
    37    21    22    1
