@<TRIPOS>MOLECULE
*****
 37 40 0 0 0
SMALL
GASTEIGER

@<TRIPOS>ATOM
      1 C         142.3908  140.5258  165.4539 C.ar    1  UNL1        0.1196
      2 C         142.9200  141.8183  164.9068 C.ar    1  UNL1        0.1196
      3 N         143.4325  141.8827  163.4985 N.ar    1  UNL1       -0.2379
      4 C         143.4157  140.6546  162.6374 C.ar    1  UNL1        0.1304
      5 C         143.9282  140.7191  161.2290 C.ar    1  UNL1        0.0718
      6 C         143.9114  139.4911  160.3679 C.ar    1  UNL1        0.0370
      7 C         143.3821  138.1985  160.9151 C.ar    1  UNL1        0.1020
      8 N         142.8697  138.1341  162.3233 N.ar    1  UNL1       -0.2237
      9 C         142.8865  139.3622  163.1845 C.ar    1  UNL1        0.1815
     10 N         142.3740  139.2977  164.5927 N.ar    1  UNL1       -0.2222
     11 C         140.8533  140.3324  169.6787 C.ar    1  UNL1        0.0722
     12 C         142.3051  140.0817  169.3967 C.ar    1  UNL1        0.1033
     13 N         142.8176  140.1462  167.9884 N.ar    1  UNL1       -0.2422
     14 C         141.8783  140.4613  166.8622 C.ar    1  UNL1        0.1044
     15 C         140.4266  140.7120  167.1442 C.ar    1  UNL1        0.0907
     16 C         139.9141  140.6475  168.5524 C.ar    1  UNL1        0.0115
     17 N         139.6219  139.0425  171.5680 N.am    1  UNL1       -0.3253
     18 C         140.3408  140.2679  171.0869 C.2     1  UNL1        0.2443
     19 O         140.5473  141.4288  172.0141 O.2     1  UNL1       -0.2703
     20 H         139.2855  139.0002  172.4923 H       1  UNL1        0.1453
     21 H         139.4864  138.2806  170.9595 H       1  UNL1        0.1453
     22 C         139.4873  141.0272  166.0179 C.3     1  UNL1        0.4200
     23 F         138.5480  141.3423  164.8916 F       1  UNL1       -0.1658
     24 F         139.2030  139.5645  165.8457 F       1  UNL1       -0.1658
     25 F         139.7716  142.4899  166.1900 F       1  UNL1       -0.1658
     26 N         144.4574  142.0116  160.6820 N.pl3   1  UNL1       -0.2966
     27 H         145.4110  142.2349  160.7824 H       1  UNL1        0.1537
     28 C         143.5337  142.9639  159.9818 C.ar    1  UNL1        0.1322
     29 C         143.5517  143.0623  158.4852 C.ar    1  UNL1        0.0344
     30 C         142.6280  144.0146  157.7852 C.ar    1  UNL1        0.0083
     31 C         141.6865  144.8684  158.5817 C.ar    1  UNL1        0.0906
     32 C         141.6686  144.7699  160.0784 C.ar    1  UNL1        0.1041
     33 N         142.5922  143.8177  160.7784 N.ar    1  UNL1       -0.2291
     34 C         140.7629  145.8207  157.8816 C.3     1  UNL1        0.4200
     35 F         139.8393  146.7729  157.1815 F       1  UNL1       -0.1658
     36 F         139.8721  145.8439  159.0883 F       1  UNL1       -0.1658
     37 F         141.6536  145.7974  156.6750 F       1  UNL1       -0.1658
@<TRIPOS>BOND
     1    17    18   am
     2    18    19    2
     3    18    11    1
     4    11    12   ar
     5    12    13   ar
     6    13    14   ar
     7    14     1    1
     8     1     2   ar
     9     2     3   ar
    10     3     4   ar
    11     4     5   ar
    12     5    26    1
    13    26    28    1
    14    28    29   ar
    15    29    30   ar
    16    30    31   ar
    17    31    34    1
    18    34    35    1
    19    34    36    1
    20    34    37    1
    21    31    32   ar
    22    32    33   ar
    23     5     6   ar
    24     6     7   ar
    25     7     8   ar
    26     8     9   ar
    27     9    10   ar
    28    14    15   ar
    29    15    22    1
    30    22    23    1
    31    22    24    1
    32    22    25    1
    33    15    16   ar
    34    16    11   ar
    35    10     1   ar
    36     9     4   ar
    37    33    28   ar
    38    17    20    1
    39    17    21    1
    40    26    27    1
@<TRIPOS>MOLECULE
*****
 37 40 0 0 0
SMALL
GASTEIGER

@<TRIPOS>ATOM
      1 C         142.1408  139.9026  165.1960 C.ar    1  UNL1        0.1196
      2 C         142.1846  138.5792  164.4915 C.ar    1  UNL1        0.1196
      3 N         142.6232  138.5064  163.0589 N.ar    1  UNL1       -0.2379
      4 C         143.0178  139.7570  162.3308 C.ar    1  UNL1        0.1304
      5 C         143.4564  139.6842  160.8982 C.ar    1  UNL1        0.0718
      6 C         143.8510  140.9348  160.1701 C.ar    1  UNL1        0.0370
      7 C         143.8072  142.2584  160.8747 C.ar    1  UNL1        0.1020
      8 N         143.3686  142.3312  162.3073 N.ar    1  UNL1       -0.2237
      9 C         142.9740  141.0805  163.0354 C.ar    1  UNL1        0.1815
     10 N         142.5354  141.1533  164.4679 N.ar    1  UNL1       -0.2222
     11 C         140.8251  140.1212  169.4939 C.ar    1  UNL1        0.0722
     12 C         142.2816  139.9866  169.1613 C.ar    1  UNL1        0.1033
     13 N         142.7201  139.9138  167.7287 N.ar    1  UNL1       -0.2422
     14 C         141.7022  139.9755  166.6287 C.ar    1  UNL1        0.1044
     15 C         140.2458  140.1101  166.9612 C.ar    1  UNL1        0.0907
     16 C         139.8072  140.1830  168.3938 C.ar    1  UNL1        0.0115
     17 N         139.6528  139.0417  171.5457 N.am    1  UNL1       -0.3253
     18 C         140.3865  140.1941  170.9265 C.2     1  UNL1        0.2443
     19 O         140.6817  141.4194  171.7398 O.2     1  UNL1       -0.2703
     20 H         139.3649  139.0895  172.4859 H       1  UNL1        0.1453
     21 H         139.4591  138.2375  171.0118 H       1  UNL1        0.1453
     22 C         139.2279  140.1719  165.8611 C.3     1  UNL1        0.4200
     23 F         138.2100  140.2336  164.7611 F       1  UNL1       -0.1658
     24 F         139.1000  138.6778  165.8956 F       1  UNL1       -0.1658
     25 F         139.3557  141.6660  165.8267 F       1  UNL1       -0.1658
     26 N         143.5002  138.3607  160.1936 N.pl3   1  UNL1       -0.2966
     27 H         144.1677  137.6858  160.4549 H       1  UNL1        0.1537
     28 C         142.5270  138.0654  159.0910 C.ar    1  UNL1        0.1322
     29 C         141.1127  138.5554  159.1877 C.ar    1  UNL1        0.0344
     30 C         140.1395  138.2601  158.0852 C.ar    1  UNL1        0.0083
     31 C         140.5808  137.4747  156.8858 C.ar    1  UNL1        0.0906
     32 C         141.9951  136.9846  156.7890 C.ar    1  UNL1        0.1041
     33 N         142.9682  137.2800  157.8916 N.ar    1  UNL1       -0.2291
     34 C         139.6076  137.1794  155.7832 C.3     1  UNL1        0.4200
     35 F         138.6344  136.8840  154.6806 F       1  UNL1       -0.1658
     36 F         138.8988  138.4714  156.0626 F       1  UNL1       -0.1658
     37 F         140.3163  135.8873  155.5037 F       1  UNL1       -0.1658
@<TRIPOS>BOND
     1    17    18   am
     2    18    19    2
     3    18    11    1
     4    11    12   ar
     5    12    13   ar
     6    13    14   ar
     7    14     1    1
     8     1     2   ar
     9     2     3   ar
    10     3     4   ar
    11     4     5   ar
    12     5    26    1
    13    26    28    1
    14    28    29   ar
    15    29    30   ar
    16    30    31   ar
    17    31    34    1
    18    34    35    1
    19    34    36    1
    20    34    37    1
    21    31    32   ar
    22    32    33   ar
    23     5     6   ar
    24     6     7   ar
    25     7     8   ar
    26     8     9   ar
    27     9    10   ar
    28    14    15   ar
    29    15    22    1
    30    22    23    1
    31    22    24    1
    32    22    25    1
    33    15    16   ar
    34    16    11   ar
    35    10     1   ar
    36     9     4   ar
    37    33    28   ar
    38    17    20    1
    39    17    21    1
    40    26    27    1
@<TRIPOS>MOLECULE
*****
 37 40 0 0 0
SMALL
GASTEIGER

@<TRIPOS>ATOM
      1 C         140.9811  142.0938  165.1837 C.ar    1  UNL1        0.1196
      2 C         140.3485  143.3268  164.6098 C.ar    1  UNL1        0.1196
      3 N         140.8413  143.8862  163.3082 N.ar    1  UNL1       -0.2379
      4 C         141.9667  143.2125  162.5805 C.ar    1  UNL1        0.1304
      5 C         142.4595  143.7719  161.2788 C.ar    1  UNL1        0.0718
      6 C         143.5849  143.0982  160.5511 C.ar    1  UNL1        0.0370
      7 C         144.2175  141.8651  161.1250 C.ar    1  UNL1        0.1020
      8 N         143.7248  141.3058  162.4266 N.ar    1  UNL1       -0.2237
      9 C         142.5993  141.9795  163.1544 C.ar    1  UNL1        0.1815
     10 N         142.1066  141.4201  164.4560 N.ar    1  UNL1       -0.2222
     11 C         139.5028  140.4156  169.0887 C.ar    1  UNL1        0.0722
     12 C         140.4531  141.5762  169.0830 C.ar    1  UNL1        0.1033
     13 N         140.9458  142.1356  167.7813 N.ar    1  UNL1       -0.2422
     14 C         140.4884  141.5344  166.4854 C.ar    1  UNL1        0.1044
     15 C         139.5381  140.3738  166.4912 C.ar    1  UNL1        0.0907
     16 C         139.0454  139.8144  167.7928 C.ar    1  UNL1        0.0115
     17 N         139.9888  139.4741  171.4608 N.am    1  UNL1       -0.3253
     18 C         139.0101  139.8562  170.3903 C.2     1  UNL1        0.2443
     19 O         137.5386  139.6790  170.6214 O.2     1  UNL1       -0.2703
     20 H         139.6654  139.1069  172.3151 H       1  UNL1        0.1453
     21 H         140.9545  139.5904  171.3092 H       1  UNL1        0.1453
     22 C         139.0807  139.7726  165.1953 C.3     1  UNL1        0.4200
     23 F         138.6232  139.1715  163.8994 F       1  UNL1       -0.1658
     24 F         137.9292  140.7330  165.1562 F       1  UNL1       -0.1658
     25 F         140.2322  138.8122  165.2343 F       1  UNL1       -0.1658
     26 N         141.8268  145.0049  160.7049 N.pl3   1  UNL1       -0.2966
     27 H         141.6700  145.7899  161.2779 H       1  UNL1        0.1537
     28 C         141.4331  145.0418  159.2579 C.ar    1  UNL1        0.1322
     29 C         140.2207  144.2920  158.7912 C.ar    1  UNL1        0.0344
     30 C         139.8270  144.3289  157.3442 C.ar    1  UNL1        0.0083
     31 C         140.6457  145.1157  156.3641 C.ar    1  UNL1        0.0906
     32 C         141.8581  145.8655  156.8308 C.ar    1  UNL1        0.1041
     33 N         142.2518  145.8286  158.2777 N.ar    1  UNL1       -0.2291
     34 C         140.2520  145.1526  154.9171 C.3     1  UNL1        0.4200
     35 F         139.8583  145.1895  153.4702 F       1  UNL1       -0.1658
     36 F         141.4980  145.9242  154.5977 F       1  UNL1       -0.1658
     37 F         139.0060  144.3810  155.2365 F       1  UNL1       -0.1658
@<TRIPOS>BOND
     1    17    18   am
     2    18    19    2
     3    18    11    1
     4    11    12   ar
     5    12    13   ar
     6    13    14   ar
     7    14     1    1
     8     1     2   ar
     9     2     3   ar
    10     3     4   ar
    11     4     5   ar
    12     5    26    1
    13    26    28    1
    14    28    29   ar
    15    29    30   ar
    16    30    31   ar
    17    31    34    1
    18    34    35    1
    19    34    36    1
    20    34    37    1
    21    31    32   ar
    22    32    33   ar
    23     5     6   ar
    24     6     7   ar
    25     7     8   ar
    26     8     9   ar
    27     9    10   ar
    28    14    15   ar
    29    15    22    1
    30    22    23    1
    31    22    24    1
    32    22    25    1
    33    15    16   ar
    34    16    11   ar
    35    10     1   ar
    36     9     4   ar
    37    33    28   ar
    38    17    20    1
    39    17    21    1
    40    26    27    1
@<TRIPOS>MOLECULE
*****
 37 40 0 0 0
SMALL
GASTEIGER

@<TRIPOS>ATOM
      1 C         140.1355  140.4052  165.2865 C.ar    1  UNL1        0.1196
      2 C         141.3864  139.8171  164.7041 C.ar    1  UNL1        0.1196
      3 N         141.3883  139.3044  163.2944 N.ar    1  UNL1       -0.2379
      4 C         140.1393  139.3799  162.4672 C.ar    1  UNL1        0.1304
      5 C         140.1412  138.8673  161.0575 C.ar    1  UNL1        0.0718
      6 C         138.8921  138.9427  160.2303 C.ar    1  UNL1        0.0370
      7 C         137.6412  139.5309  160.8129 C.ar    1  UNL1        0.1020
      8 N         137.6393  140.0435  162.2225 N.ar    1  UNL1       -0.2237
      9 C         138.8883  139.9680  163.0497 C.ar    1  UNL1        0.1815
     10 N         138.8865  140.4807  164.4594 N.ar    1  UNL1       -0.2222
     11 C         140.1298  141.9432  169.5156 C.ar    1  UNL1        0.0722
     12 C         139.8158  140.5023  169.2412 C.ar    1  UNL1        0.1033
     13 N         139.8178  139.9896  167.8314 N.ar    1  UNL1       -0.2422
     14 C         140.1336  140.9178  166.6963 C.ar    1  UNL1        0.1044
     15 C         140.4475  142.3587  166.9707 C.ar    1  UNL1        0.0907
     16 C         140.4456  142.8714  168.3804 C.ar    1  UNL1        0.0115
     17 N         138.9765  143.2787  171.4224 N.am    1  UNL1       -0.3253
     18 C         140.1279  142.4559  170.9252 C.2     1  UNL1        0.2443
     19 O         141.2773  142.1457  171.8377 O.2     1  UNL1       -0.2703
     20 H         138.9752  143.6152  172.3476 H       1  UNL1        0.1453
     21 H         138.2221  143.4822  170.8236 H       1  UNL1        0.1453
     22 C         140.7634  143.2869  165.8355 C.3     1  UNL1        0.4200
     23 F         141.0793  144.2151  164.7003 F       1  UNL1       -0.1658
     24 F         142.2124  142.9113  165.9315 F       1  UNL1       -0.1658
     25 F         139.3144  143.6625  165.7394 F       1  UNL1       -0.1658
     26 N         141.3921  138.2792  160.4750 N.pl3   1  UNL1       -0.2966
     27 H         141.5991  137.3267  160.6136 H       1  UNL1        0.1537
     28 C         142.3277  139.1423  159.6814 C.ar    1  UNL1        0.1322
     29 C         142.5567  138.8594  158.2262 C.ar    1  UNL1        0.0344
     30 C         143.4922  139.7225  157.4327 C.ar    1  UNL1        0.0083
     31 C         144.1988  140.8684  158.0943 C.ar    1  UNL1        0.0906
     32 C         143.9698  141.1512  159.5494 C.ar    1  UNL1        0.1041
     33 N         143.0342  140.2882  160.3430 N.ar    1  UNL1       -0.2291
     34 C         145.1344  141.7315  157.3006 C.3     1  UNL1        0.4200
     35 F         146.0699  142.5946  156.5070 F       1  UNL1       -0.1658
     36 F         145.6230  140.5216  156.5608 F       1  UNL1       -0.1658
     37 F         144.6457  142.9414  158.0404 F       1  UNL1       -0.1658
@<TRIPOS>BOND
     1    17    18   am
     2    18    19    2
     3    18    11    1
     4    11    12   ar
     5    12    13   ar
     6    13    14   ar
     7    14     1    1
     8     1     2   ar
     9     2     3   ar
    10     3     4   ar
    11     4     5   ar
    12     5    26    1
    13    26    28    1
    14    28    29   ar
    15    29    30   ar
    16    30    31   ar
    17    31    34    1
    18    34    35    1
    19    34    36    1
    20    34    37    1
    21    31    32   ar
    22    32    33   ar
    23     5     6   ar
    24     6     7   ar
    25     7     8   ar
    26     8     9   ar
    27     9    10   ar
    28    14    15   ar
    29    15    22    1
    30    22    23    1
    31    22    24    1
    32    22    25    1
    33    15    16   ar
    34    16    11   ar
    35    10     1   ar
    36     9     4   ar
    37    33    28   ar
    38    17    20    1
    39    17    21    1
    40    26    27    1
@<TRIPOS>MOLECULE
*****
 37 40 0 0 0
SMALL
GASTEIGER

@<TRIPOS>ATOM
      1 C         140.2221  140.2116  165.5638 C.ar    1  UNL1        0.1196
      2 C         139.0022  140.1642  164.6923 C.ar    1  UNL1        0.1196
      3 N         139.0874  139.5783  163.3142 N.ar    1  UNL1       -0.2379
      4 C         140.3925  139.0398  162.8074 C.ar    1  UNL1        0.1304
      5 C         140.4776  138.4538  161.4292 C.ar    1  UNL1        0.0718
      6 C         141.7826  137.9153  160.9225 C.ar    1  UNL1        0.0370
      7 C         143.0026  137.9627  161.7940 C.ar    1  UNL1        0.1020
      8 N         142.9175  138.5486  163.1722 N.ar    1  UNL1       -0.2237
      9 C         141.6124  139.0872  163.6789 C.ar    1  UNL1        0.1815
     10 N         141.5272  139.6731  165.0571 N.ar    1  UNL1       -0.2222
     11 C         139.9668  141.9694  169.6985 C.ar    1  UNL1        0.0722
     12 C         139.6105  140.5301  169.4721 C.ar    1  UNL1        0.1033
     13 N         139.6956  139.9441  168.0939 N.ar    1  UNL1       -0.2422
     14 C         140.1370  140.7976  166.9420 C.ar    1  UNL1        0.1044
     15 C         140.4934  142.2369  167.1684 C.ar    1  UNL1        0.0907
     16 C         140.4083  142.8229  168.5465 C.ar    1  UNL1        0.0115
     17 N         138.8635  143.6143  171.3798 N.am    1  UNL1       -0.3253
     18 C         139.8818  142.5554  171.0766 C.2     1  UNL1        0.2443
     19 O         140.8149  142.0825  172.1516 O.2     1  UNL1       -0.2703
     20 H         138.8077  143.9989  172.2843 H       1  UNL1        0.1453
     21 H         138.2511  143.9247  170.6742 H       1  UNL1        0.1453
     22 C         140.9348  143.0904  166.0164 C.3     1  UNL1        0.4200
     23 F         141.3762  143.9438  164.8646 F       1  UNL1       -0.1658
     24 F         139.5143  143.5130  165.7852 F       1  UNL1       -0.1658
     25 F         142.3553  142.6678  166.2477 F       1  UNL1       -0.1658
     26 N         139.2576  138.4064  160.5577 N.pl3   1  UNL1       -0.2966
     27 H         138.6268  137.6546  160.6345 H       1  UNL1        0.1537
     28 C         138.9989  139.5047  159.5692 C.ar    1  UNL1        0.1322
     29 C         138.7626  140.9058  160.0497 C.ar    1  UNL1        0.0344
     30 C         138.5039  142.0040  159.0612 C.ar    1  UNL1        0.0083
     31 C         138.4815  141.7009  157.5923 C.ar    1  UNL1        0.0906
     32 C         138.7177  140.2998  157.1119 C.ar    1  UNL1        0.1041
     33 N         138.9764  139.2016  158.1003 N.ar    1  UNL1       -0.2291
     34 C         138.2227  142.7991  156.6038 C.3     1  UNL1        0.4200
     35 F         137.9640  143.8973  155.6154 F       1  UNL1       -0.1658
     36 F         136.7474  142.5529  156.7163 F       1  UNL1       -0.1658
     37 F         139.6980  143.0454  156.4913 F       1  UNL1       -0.1658
@<TRIPOS>BOND
     1    17    18   am
     2    18    19    2
     3    18    11    1
     4    11    12   ar
     5    12    13   ar
     6    13    14   ar
     7    14     1    1
     8     1     2   ar
     9     2     3   ar
    10     3     4   ar
    11     4     5   ar
    12     5    26    1
    13    26    28    1
    14    28    29   ar
    15    29    30   ar
    16    30    31   ar
    17    31    34    1
    18    34    35    1
    19    34    36    1
    20    34    37    1
    21    31    32   ar
    22    32    33   ar
    23     5     6   ar
    24     6     7   ar
    25     7     8   ar
    26     8     9   ar
    27     9    10   ar
    28    14    15   ar
    29    15    22    1
    30    22    23    1
    31    22    24    1
    32    22    25    1
    33    15    16   ar
    34    16    11   ar
    35    10     1   ar
    36     9     4   ar
    37    33    28   ar
    38    17    20    1
    39    17    21    1
    40    26    27    1
@<TRIPOS>MOLECULE
*****
 37 40 0 0 0
SMALL
GASTEIGER

@<TRIPOS>ATOM
      1 C         140.1763  141.4158  164.5766 C.ar    1  UNL1        0.1196
      2 C         139.0275  142.0362  163.8381 C.ar    1  UNL1        0.1196
      3 N         139.0614  142.1307  162.3415 N.ar    1  UNL1       -0.2379
      4 C         140.2440  141.6047  161.5834 C.ar    1  UNL1        0.1304
      5 C         140.2778  141.6991  160.0867 C.ar    1  UNL1        0.0718
      6 C         141.4604  141.1731  159.3286 C.ar    1  UNL1        0.0370
      7 C         142.6092  140.5526  160.0671 C.ar    1  UNL1        0.1020
      8 N         142.5753  140.4582  161.5637 N.ar    1  UNL1       -0.2237
      9 C         141.3927  140.9842  162.3219 C.ar    1  UNL1        0.1815
     10 N         141.3589  140.8897  163.8185 N.ar    1  UNL1       -0.2222
     11 C         140.0747  141.1323  169.0666 C.ar    1  UNL1        0.0722
     12 C         140.6243  142.3612  168.4049 C.ar    1  UNL1        0.1033
     13 N         140.6581  142.4557  166.9082 N.ar    1  UNL1       -0.2422
     14 C         140.1424  141.3213  166.0733 C.ar    1  UNL1        0.1044
     15 C         139.5929  140.0924  166.7350 C.ar    1  UNL1        0.0907
     16 C         139.5590  139.9979  168.2316 C.ar    1  UNL1        0.0115
     17 N         139.8644  139.7041  171.2266 N.am    1  UNL1       -0.3253
     18 C         140.0409  141.0378  170.5632 C.2     1  UNL1        0.2443
     19 O         140.1835  142.2769  171.3964 O.2     1  UNL1       -0.2703
     20 H         139.8422  139.6421  172.2089 H       1  UNL1        0.1453
     21 H         139.7708  138.8908  170.6798 H       1  UNL1        0.1453
     22 C         139.0772  138.9579  165.8999 C.3     1  UNL1        0.4200
     23 F         138.5616  137.8236  165.0649 F       1  UNL1       -0.1658
     24 F         140.4729  138.4267  165.7597 F       1  UNL1       -0.1658
     25 F         137.6815  139.4892  166.0401 F       1  UNL1       -0.1658
     26 N         139.1291  142.3196  159.3482 N.pl3   1  UNL1       -0.2966
     27 H         138.2156  141.9781  159.4825 H       1  UNL1        0.1537
     28 C         139.3723  143.4605  158.4052 C.ar    1  UNL1        0.1322
     29 C         138.9074  143.3693  156.9820 C.ar    1  UNL1        0.0344
     30 C         139.1505  144.5102  156.0390 C.ar    1  UNL1        0.0083
     31 C         139.8586  145.7423  156.5192 C.ar    1  UNL1        0.0906
     32 C         140.3235  145.8335  157.9424 C.ar    1  UNL1        0.1041
     33 N         140.0803  144.6926  158.8854 N.ar    1  UNL1       -0.2291
     34 C         140.1017  146.8832  155.5762 C.3     1  UNL1        0.4200
     35 F         140.3449  148.0240  154.6331 F       1  UNL1       -0.1658
     36 F         139.0732  147.7007  156.2999 F       1  UNL1       -0.1658
     37 F         141.1302  146.0657  154.8524 F       1  UNL1       -0.1658
@<TRIPOS>BOND
     1    17    18   am
     2    18    19    2
     3    18    11    1
     4    11    12   ar
     5    12    13   ar
     6    13    14   ar
     7    14     1    1
     8     1     2   ar
     9     2     3   ar
    10     3     4   ar
    11     4     5   ar
    12     5    26    1
    13    26    28    1
    14    28    29   ar
    15    29    30   ar
    16    30    31   ar
    17    31    34    1
    18    34    35    1
    19    34    36    1
    20    34    37    1
    21    31    32   ar
    22    32    33   ar
    23     5     6   ar
    24     6     7   ar
    25     7     8   ar
    26     8     9   ar
    27     9    10   ar
    28    14    15   ar
    29    15    22    1
    30    22    23    1
    31    22    24    1
    32    22    25    1
    33    15    16   ar
    34    16    11   ar
    35    10     1   ar
    36     9     4   ar
    37    33    28   ar
    38    17    20    1
    39    17    21    1
    40    26    27    1
@<TRIPOS>MOLECULE
*****
 37 40 0 0 0
SMALL
GASTEIGER

@<TRIPOS>ATOM
      1 C         142.6739  138.4349  160.1812 C.ar    1  UNL1        0.1196
      2 C         142.3525  137.6255  161.4024 C.ar    1  UNL1        0.1196
      3 N         142.9068  138.0288  162.7366 N.ar    1  UNL1       -0.2379
      4 C         143.7825  139.2414  162.8496 C.ar    1  UNL1        0.1304
      5 C         144.3368  139.6447  164.1838 C.ar    1  UNL1        0.0718
      6 C         145.2124  140.8573  164.2968 C.ar    1  UNL1        0.0370
      7 C         145.5338  141.6667  163.0754 C.ar    1  UNL1        0.1020
      8 N         144.9795  141.2634  161.7412 N.ar    1  UNL1       -0.2237
      9 C         144.1039  140.0508  161.6283 C.ar    1  UNL1        0.1815
     10 N         143.5496  139.6476  160.2941 N.ar    1  UNL1       -0.2222
     11 C         141.0111  137.2253  156.1784 C.ar    1  UNL1        0.0722
     12 C         142.4071  136.8315  156.5606 C.ar    1  UNL1        0.1033
     13 N         142.9614  137.2348  157.8949 N.ar    1  UNL1       -0.2422
     14 C         142.1196  138.0317  158.8469 C.ar    1  UNL1        0.1044
     15 C         140.7236  138.4254  158.4647 C.ar    1  UNL1        0.0907
     16 C         140.1693  138.0223  157.1305 C.ar    1  UNL1        0.0115
     17 N         140.9057  135.5436  154.2009 N.am    1  UNL1       -0.3253
     18 C         140.4568  136.8221  154.8442 C.2     1  UNL1        0.2443
     19 O         139.4536  137.6974  154.1533 O.2     1  UNL1       -0.2703
     20 H         140.5419  135.2789  153.3252 H       1  UNL1        0.1453
     21 H         141.5642  134.9691  154.6544 H       1  UNL1        0.1453
     22 C         139.8819  139.2224  159.4167 C.3     1  UNL1        0.4200
     23 F         139.0402  140.0194  160.3687 F       1  UNL1       -0.1658
     24 F         140.4253  140.4930  158.8335 F       1  UNL1       -0.1658
     25 F         139.3385  137.9518  160.0000 F       1  UNL1       -0.1658
     26 N         144.0154  138.8353  165.4051 N.pl3   1  UNL1       -0.2966
     27 H         144.5131  138.0065  165.5914 H       1  UNL1        0.1537
     28 C         142.9357  139.2886  166.3426 C.ar    1  UNL1        0.1322
     29 C         141.6976  139.9401  165.8017 C.ar    1  UNL1        0.0344
     30 C         140.6179  140.3934  166.7392 C.ar    1  UNL1        0.0083
     31 C         140.7764  140.1951  168.2175 C.ar    1  UNL1        0.0906
     32 C         142.0145  139.5436  168.7584 C.ar    1  UNL1        0.1041
     33 N         143.0941  139.0903  167.8210 N.ar    1  UNL1       -0.2291
     34 C         139.6967  140.6484  169.1550 C.3     1  UNL1        0.4200
     35 F         138.6170  141.1018  170.0925 F       1  UNL1       -0.1658
     36 F         138.7541  139.6491  168.5527 F       1  UNL1       -0.1658
     37 F         140.6393  141.6477  169.7573 F       1  UNL1       -0.1658
@<TRIPOS>BOND
     1    17    18   am
     2    18    19    2
     3    18    11    1
     4    11    12   ar
     5    12    13   ar
     6    13    14   ar
     7    14     1    1
     8     1     2   ar
     9     2     3   ar
    10     3     4   ar
    11     4     5   ar
    12     5    26    1
    13    26    28    1
    14    28    29   ar
    15    29    30   ar
    16    30    31   ar
    17    31    34    1
    18    34    35    1
    19    34    36    1
    20    34    37    1
    21    31    32   ar
    22    32    33   ar
    23     5     6   ar
    24     6     7   ar
    25     7     8   ar
    26     8     9   ar
    27     9    10   ar
    28    14    15   ar
    29    15    22    1
    30    22    23    1
    31    22    24    1
    32    22    25    1
    33    15    16   ar
    34    16    11   ar
    35    10     1   ar
    36     9     4   ar
    37    33    28   ar
    38    17    20    1
    39    17    21    1
    40    26    27    1
@<TRIPOS>MOLECULE
*****
 37 40 0 0 0
SMALL
GASTEIGER

@<TRIPOS>ATOM
      1 C         142.2841  141.5933  164.9084 C.ar    1  UNL1        0.1196
      2 C         140.9276  141.7660  164.2919 C.ar    1  UNL1        0.1196
      3 N         140.8023  142.0721  162.8288 N.ar    1  UNL1       -0.2379
      4 C         142.0334  142.2055  161.9823 C.ar    1  UNL1        0.1304
      5 C         141.9079  142.5116  160.5192 C.ar    1  UNL1        0.0718
      6 C         143.1390  142.6450  159.6726 C.ar    1  UNL1        0.0370
      7 C         144.4955  142.4722  160.2892 C.ar    1  UNL1        0.1020
      8 N         144.6209  142.1662  161.7523 N.ar    1  UNL1       -0.2237
      9 C         143.3898  142.0328  162.5988 C.ar    1  UNL1        0.1815
     10 N         143.5152  141.7267  164.0618 N.ar    1  UNL1       -0.2222
     11 C         142.6604  140.6750  169.2977 C.ar    1  UNL1        0.0722
     12 C         142.6216  142.0997  168.8302 C.ar    1  UNL1        0.1033
     13 N         142.4962  142.4058  167.3670 N.ar    1  UNL1       -0.2422
     14 C         142.4096  141.2872  166.3715 C.ar    1  UNL1        0.1044
     15 C         142.4483  139.8624  166.8390 C.ar    1  UNL1        0.0907
     16 C         142.5738  139.5563  168.3020 C.ar    1  UNL1        0.0115
     17 N         143.8792  139.4641  171.2465 N.am    1  UNL1       -0.3253
     18 C         142.7858  140.3688  170.7607 C.2     1  UNL1        0.2443
     19 O         141.8179  140.9674  171.7379 O.2     1  UNL1       -0.2703
     20 H         143.9615  139.2632  172.2068 H       1  UNL1        0.1453
     21 H         144.5144  139.0713  170.6052 H       1  UNL1        0.1453
     22 C         142.3617  138.7438  165.8434 C.3     1  UNL1        0.4200
     23 F         142.2751  137.6252  164.8478 F       1  UNL1       -0.1658
     24 F         143.8586  138.7078  165.7537 F       1  UNL1       -0.1658
     25 F         140.8649  138.7798  165.9331 F       1  UNL1       -0.1658
     26 N         140.5514  142.6842  159.9027 N.pl3   1  UNL1       -0.2966
     27 H         139.7874  142.1630  160.2401 H       1  UNL1        0.1537
     28 C         140.3590  143.6511  158.7721 C.ar    1  UNL1        0.1322
     29 C         140.4923  145.1253  159.0150 C.ar    1  UNL1        0.0344
     30 C         140.2998  146.0921  157.8844 C.ar    1  UNL1        0.0083
     31 C         139.9741  145.5847  156.5109 C.ar    1  UNL1        0.0906
     32 C         139.8408  144.1106  156.2680 C.ar    1  UNL1        0.1041
     33 N         140.0333  143.1438  157.3986 N.ar    1  UNL1       -0.2291
     34 C         139.7817  146.5516  155.3803 C.3     1  UNL1        0.4200
     35 F         139.5892  147.5185  154.2498 F       1  UNL1       -0.1658
     36 F         141.1205  146.1673  154.8237 F       1  UNL1       -0.1658
     37 F         138.4429  146.9360  155.9370 F       1  UNL1       -0.1658
@<TRIPOS>BOND
     1    17    18   am
     2    18    19    2
     3    18    11    1
     4    11    12   ar
     5    12    13   ar
     6    13    14   ar
     7    14     1    1
     8     1     2   ar
     9     2     3   ar
    10     3     4   ar
    11     4     5   ar
    12     5    26    1
    13    26    28    1
    14    28    29   ar
    15    29    30   ar
    16    30    31   ar
    17    31    34    1
    18    34    35    1
    19    34    36    1
    20    34    37    1
    21    31    32   ar
    22    32    33   ar
    23     5     6   ar
    24     6     7   ar
    25     7     8   ar
    26     8     9   ar
    27     9    10   ar
    28    14    15   ar
    29    15    22    1
    30    22    23    1
    31    22    24    1
    32    22    25    1
    33    15    16   ar
    34    16    11   ar
    35    10     1   ar
    36     9     4   ar
    37    33    28   ar
    38    17    20    1
    39    17    21    1
    40    26    27    1
@<TRIPOS>MOLECULE
*****
 37 40 0 0 0
SMALL
GASTEIGER

@<TRIPOS>ATOM
      1 C         141.9843  141.7077  165.1342 C.ar    1  UNL1        0.1196
      2 C         142.9700  140.7867  164.4784 C.ar    1  UNL1        0.1196
      3 N         143.3534  140.9973  163.0436 N.ar    1  UNL1       -0.2379
      4 C         142.7511  142.1290  162.2647 C.ar    1  UNL1        0.1304
      5 C         143.1346  142.3396  160.8299 C.ar    1  UNL1        0.0718
      6 C         142.5324  143.4713  160.0510 C.ar    1  UNL1        0.0370
      7 C         141.5467  144.3923  160.7069 C.ar    1  UNL1        0.1020
      8 N         141.1632  144.1816  162.1417 N.ar    1  UNL1       -0.2237
      9 C         141.7655  143.0500  162.9206 C.ar    1  UNL1        0.1815
     10 N         141.3821  142.8393  164.3553 N.ar    1  UNL1       -0.2222
     11 C         140.8339  141.0758  169.4386 C.ar    1  UNL1        0.0722
     12 C         142.0387  141.9017  169.0978 C.ar    1  UNL1        0.1033
     13 N         142.4222  142.1124  167.6630 N.ar    1  UNL1       -0.2422
     14 C         141.6008  141.4971  166.5691 C.ar    1  UNL1        0.1044
     15 C         140.3960  140.6711  166.9099 C.ar    1  UNL1        0.0907
     16 C         140.0125  140.4605  168.3446 C.ar    1  UNL1        0.0115
     17 N         139.9059  139.5399  171.3173 N.am    1  UNL1       -0.3253
     18 C         140.4504  140.8651  170.8734 C.2     1  UNL1        0.2443
     19 O         140.6114  141.9798  171.8642 O.2     1  UNL1       -0.2703
     20 H         139.6542  139.4016  172.2590 H       1  UNL1        0.1453
     21 H         139.8002  138.8083  170.6670 H       1  UNL1        0.1453
     22 C         139.5746  140.0558  165.8159 C.3     1  UNL1        0.4200
     23 F         138.7533  139.4405  164.7219 F       1  UNL1       -0.1658
     24 F         138.7321  141.2951  165.7514 F       1  UNL1       -0.1658
     25 F         140.4171  138.8164  165.8803 F       1  UNL1       -0.1658
     26 N         144.1203  141.4186  160.1740 N.pl3   1  UNL1       -0.2966
     27 H         145.0864  141.5791  160.2748 H       1  UNL1        0.1537
     28 C         143.6340  140.2530  159.3647 C.ar    1  UNL1        0.1322
     29 C         143.5984  140.3421  157.8678 C.ar    1  UNL1        0.0344
     30 C         143.1121  139.1765  157.0585 C.ar    1  UNL1        0.0083
     31 C         142.6614  137.9219  157.7461 C.ar    1  UNL1        0.0906
     32 C         142.6970  137.8328  159.2430 C.ar    1  UNL1        0.1041
     33 N         143.1833  138.9984  160.0523 N.ar    1  UNL1       -0.2291
     34 C         142.1751  136.7563  156.9368 C.3     1  UNL1        0.4200
     35 F         141.6889  135.5908  156.1274 F       1  UNL1       -0.1658
     36 F         140.7568  137.1820  157.1758 F       1  UNL1       -0.1658
     37 F         143.5934  136.3307  156.6977 F       1  UNL1       -0.1658
@<TRIPOS>BOND
     1    17    18   am
     2    18    19    2
     3    18    11    1
     4    11    12   ar
     5    12    13   ar
     6    13    14   ar
     7    14     1    1
     8     1     2   ar
     9     2     3   ar
    10     3     4   ar
    11     4     5   ar
    12     5    26    1
    13    26    28    1
    14    28    29   ar
    15    29    30   ar
    16    30    31   ar
    17    31    34    1
    18    34    35    1
    19    34    36    1
    20    34    37    1
    21    31    32   ar
    22    32    33   ar
    23     5     6   ar
    24     6     7   ar
    25     7     8   ar
    26     8     9   ar
    27     9    10   ar
    28    14    15   ar
    29    15    22    1
    30    22    23    1
    31    22    24    1
    32    22    25    1
    33    15    16   ar
    34    16    11   ar
    35    10     1   ar
    36     9     4   ar
    37    33    28   ar
    38    17    20    1
    39    17    21    1
    40    26    27    1
