@<TRIPOS>MOLECULE
*****
 27 29 0 0 0
SMALL
GASTEIGER

@<TRIPOS>ATOM
      1 N         142.1918  137.8862  158.6112 N.3     1  UNL1       -0.2697
      2 C         142.9647  137.6103  159.8667 C.3     1  UNL1        0.0940
      3 C         142.3910  137.9909  161.1995 C.3     1  UNL1        0.1123
      4 N         141.0445  138.6473  161.2766 N.am    1  UNL1       -0.2611
      5 C         140.4709  139.0278  162.6093 C.2     1  UNL1        0.3078
      6 O         139.1244  139.6843  162.6865 O.2     1  UNL1       -0.2522
      7 N         141.2439  138.7519  163.8649 N.am    1  UNL1       -0.2681
      8 C         140.2716  138.9232  160.0211 C.3     1  UNL1        0.1123
      9 C         140.8452  138.5427  158.6883 C.3     1  UNL1        0.0940
     10 H         142.1276  138.3211  163.8143 H       1  UNL1        0.1564
     11 C         140.6702  139.1325  165.1977 C.ar    1  UNL1        0.0525
     12 C         141.4451  140.0261  166.1202 C.ar    1  UNL1        0.0156
     13 C         140.8715  140.4067  167.4529 C.ar    1  UNL1        0.0135
     14 C         139.5230  139.8936  167.8631 C.ar    1  UNL1        0.0683
     15 CL        138.9494  140.2742  169.1958 Cl      1  UNL1       -0.0814
     16 C         138.7481  139.0000  166.9406 C.ar    1  UNL1        0.0694
     17 CL        137.3996  138.4869  167.3509 Cl      1  UNL1       -0.0813
     18 C         139.3217  138.6194  165.6079 C.ar    1  UNL1        0.0270
     19 C         142.7653  137.5057  157.2785 C.3     1  UNL1        0.0735
     20 N         143.0806  133.5975  156.6647 N.3     1  UNL1       -0.2726
     21 C         142.0369  133.3915  155.6072 C.3     1  UNL1        0.0721
     22 C         141.2360  134.5569  155.1069 C.3     1  UNL1        0.0174
     23 C         141.4788  135.9283  155.6639 C.3     1  UNL1        0.0042
     24 C         142.5225  136.1343  156.7213 C.3     1  UNL1        0.0320
     25 C         143.3234  134.9689  157.2217 C.3     1  UNL1        0.0734
     26 C         144.7402  131.6495  156.2163 C.3     1  UNL1        0.0188
     27 C         143.8815  132.4321  157.1651 C.3     1  UNL1        0.0721
@<TRIPOS>BOND
     1    26    27    1
     2    27    20    1
     3    20    21    1
     4    21    22    1
     5    22    23    1
     6    23    24    1
     7    24    19    1
     8    19     1    1
     9     1     2    1
    10     2     3    1
    11     3     4    1
    12     4     5   am
    13     5     6    2
    14     5     7   am
    15     7    11    1
    16    11    12   ar
    17    12    13   ar
    18    13    14   ar
    19    14    15    1
    20    14    16   ar
    21    16    17    1
    22    16    18   ar
    23     4     8    1
    24     8     9    1
    25    24    25    1
    26    25    20    1
    27     9     1    1
    28    18    11   ar
    29     7    10    1
@<TRIPOS>MOLECULE
*****
 27 29 0 0 0
SMALL
GASTEIGER

@<TRIPOS>ATOM
      1 N         141.1151  144.9547  160.2680 N.3     1  UNL1       -0.2697
      2 C         141.8296  143.7665  160.8405 C.3     1  UNL1        0.0940
      3 C         141.4719  143.2633  162.2076 C.3     1  UNL1        0.1123
      4 N         140.3998  143.9482  163.0021 N.am    1  UNL1       -0.2611
      5 C         140.0421  143.4449  164.3691 C.2     1  UNL1        0.3078
      6 O         138.9700  144.1299  165.1638 O.2     1  UNL1       -0.2522
      7 N         140.7566  142.2568  164.9416 N.am    1  UNL1       -0.2681
      8 C         139.6853  145.1364  162.4297 C.3     1  UNL1        0.1123
      9 C         140.0429  145.6396  161.0626 C.3     1  UNL1        0.0940
     10 H         141.4603  141.8072  164.4201 H       1  UNL1        0.1564
     11 C         140.3989  141.7535  166.3087 C.ar    1  UNL1        0.0525
     12 C         139.7114  140.4295  166.4643 C.ar    1  UNL1        0.0156
     13 C         139.3537  139.9262  167.8313 C.ar    1  UNL1        0.0135
     14 C         139.6836  140.7470  169.0427 C.ar    1  UNL1        0.0683
     15 CL        139.3259  140.2438  170.4098 Cl      1  UNL1       -0.0814
     16 C         140.3711  142.0710  168.8871 C.ar    1  UNL1        0.0694
     17 CL        140.7010  142.8918  170.0985 Cl      1  UNL1       -0.0813
     18 C         140.7288  142.5743  167.5201 C.ar    1  UNL1        0.0270
     19 C         141.4727  145.4579  158.9010 C.3     1  UNL1        0.0735
     20 N         139.1586  146.4114  155.8210 N.3     1  UNL1       -0.2726
     21 C         138.5226  145.0860  155.5233 C.3     1  UNL1        0.0721
     22 C         138.8700  143.8845  156.3515 C.3     1  UNL1        0.0174
     23 C         139.8533  144.0085  157.4774 C.3     1  UNL1        0.0042
     24 C         140.4893  145.3339  157.7751 C.3     1  UNL1        0.0320
     25 C         140.1420  146.5354  156.9469 C.3     1  UNL1        0.0734
     26 C         138.7826  148.9744  155.6217 C.3     1  UNL1        0.0188
     27 C         138.8113  147.6129  154.9929 C.3     1  UNL1        0.0721
@<TRIPOS>BOND
     1    26    27    1
     2    27    20    1
     3    20    21    1
     4    21    22    1
     5    22    23    1
     6    23    24    1
     7    24    19    1
     8    19     1    1
     9     1     2    1
    10     2     3    1
    11     3     4    1
    12     4     5   am
    13     5     6    2
    14     5     7   am
    15     7    11    1
    16    11    12   ar
    17    12    13   ar
    18    13    14   ar
    19    14    15    1
    20    14    16   ar
    21    16    17    1
    22    16    18   ar
    23     4     8    1
    24     8     9    1
    25    24    25    1
    26    25    20    1
    27     9     1    1
    28    18    11   ar
    29     7    10    1
@<TRIPOS>MOLECULE
*****
 27 29 0 0 0
SMALL
GASTEIGER

@<TRIPOS>ATOM
      1 N         139.4595  138.1186  162.2168 N.3     1  UNL1       -0.2697
      2 C         138.0777  138.6201  161.9181 C.3     1  UNL1        0.0940
      3 C         137.7949  139.3081  160.6154 C.3     1  UNL1        0.1123
      4 N         138.8938  139.4946  159.6117 N.am    1  UNL1       -0.2611
      5 C         138.6110  140.1826  158.3092 C.2     1  UNL1        0.3078
      6 O         139.7099  140.3691  157.3053 O.2     1  UNL1       -0.2522
      7 N         137.2293  140.6841  158.0104 N.am    1  UNL1       -0.2681
      8 C         140.2756  138.9931  159.9105 C.3     1  UNL1        0.1123
      9 C         140.5584  138.3051  161.2130 C.3     1  UNL1        0.0940
     10 H         136.5080  140.5617  158.6692 H       1  UNL1        0.1564
     11 C         136.9465  141.3722  156.7078 C.ar    1  UNL1        0.0525
     12 C         136.2957  140.6174  155.5867 C.ar    1  UNL1        0.0156
     13 C         136.0129  141.3053  154.2842 C.ar    1  UNL1        0.0135
     14 C         136.3809  142.7481  154.1027 C.ar    1  UNL1        0.0683
     15 CL        136.0981  143.4361  152.8001 Cl      1  UNL1       -0.0814
     16 C         137.0316  143.5029  155.2237 C.ar    1  UNL1        0.0694
     17 CL        137.3996  144.9457  155.0422 Cl      1  UNL1       -0.0813
     18 C         137.3144  142.8149  156.5263 C.ar    1  UNL1        0.0270
     19 C         139.7423  137.4306  163.5193 C.3     1  UNL1        0.0735
     20 N         140.9461  139.6220  166.6014 N.3     1  UNL1       -0.2726
     21 C         139.6623  139.7692  167.3631 C.3     1  UNL1        0.0721
     22 C         138.4052  139.1369  166.8436 C.3     1  UNL1        0.0174
     23 C         138.4319  138.3574  165.5624 C.3     1  UNL1        0.0042
     24 C         139.7156  138.2101  164.8006 C.3     1  UNL1        0.0320
     25 C         140.9727  138.8425  165.3201 C.3     1  UNL1        0.0734
     26 C         142.6231  140.0301  168.5433 C.3     1  UNL1        0.0188
     27 C         142.2032  140.2543  167.1208 C.3     1  UNL1        0.0721
@<TRIPOS>BOND
     1    26    27    1
     2    27    20    1
     3    20    21    1
     4    21    22    1
     5    22    23    1
     6    23    24    1
     7    24    19    1
     8    19     1    1
     9     1     2    1
    10     2     3    1
    11     3     4    1
    12     4     5   am
    13     5     6    2
    14     5     7   am
    15     7    11    1
    16    11    12   ar
    17    12    13   ar
    18    13    14   ar
    19    14    15    1
    20    14    16   ar
    21    16    17    1
    22    16    18   ar
    23     4     8    1
    24     8     9    1
    25    24    25    1
    26    25    20    1
    27     9     1    1
    28    18    11   ar
    29     7    10    1
@<TRIPOS>MOLECULE
*****
 27 29 0 0 0
SMALL
GASTEIGER

@<TRIPOS>ATOM
      1 N         142.3318  138.0381  158.7204 N.3     1  UNL1       -0.2697
      2 C         142.8971  137.4537  159.9809 C.3     1  UNL1        0.0940
      3 C         142.3341  137.8552  161.3121 C.3     1  UNL1        0.1123
      4 N         141.2059  138.8412  161.3827 N.am    1  UNL1       -0.2611
      5 C         140.6430  139.2427  162.7138 C.2     1  UNL1        0.3078
      6 O         139.5148  140.2287  162.7844 O.2     1  UNL1       -0.2522
      7 N         141.2083  138.6583  163.9743 N.am    1  UNL1       -0.2681
      8 C         140.6407  139.4256  160.1221 C.3     1  UNL1        0.1123
      9 C         141.2036  139.0241  158.7910 C.3     1  UNL1        0.0940
     10 H         141.9488  138.0111  163.9279 H       1  UNL1        0.1564
     11 C         140.6453  139.0598  165.3054 C.ar    1  UNL1        0.0525
     12 C         139.2060  138.7839  165.6251 C.ar    1  UNL1        0.0156
     13 C         138.6430  139.1854  166.9561 C.ar    1  UNL1        0.0135
     14 C         139.5194  139.8629  167.9675 C.ar    1  UNL1        0.0683
     15 CL        138.9564  140.2644  169.2987 Cl      1  UNL1       -0.0814
     16 C         140.9587  140.1388  167.6479 C.ar    1  UNL1        0.0694
     17 CL        141.8350  140.8163  168.6594 Cl      1  UNL1       -0.0813
     18 C         141.5217  139.7373  166.3168 C.ar    1  UNL1        0.0270
     19 C         142.8947  137.6366  157.3893 C.3     1  UNL1        0.0735
     20 N         142.8866  133.7432  156.6202 N.3     1  UNL1       -0.2726
     21 C         141.7994  133.6600  155.5901 C.3     1  UNL1        0.0721
     22 C         141.0773  134.9024  155.1598 C.3     1  UNL1        0.0174
     23 C         141.4424  136.2279  155.7595 C.3     1  UNL1        0.0042
     24 C         142.5296  136.3111  156.7895 C.3     1  UNL1        0.0320
     25 C         143.2517  135.0687  157.2199 C.3     1  UNL1        0.0734
     26 C         144.8616  132.6069  157.8684 C.3     1  UNL1        0.0188
     27 C         143.6087  132.5009  157.0505 C.3     1  UNL1        0.0721
@<TRIPOS>BOND
     1    26    27    1
     2    27    20    1
     3    20    21    1
     4    21    22    1
     5    22    23    1
     6    23    24    1
     7    24    19    1
     8    19     1    1
     9     1     2    1
    10     2     3    1
    11     3     4    1
    12     4     5   am
    13     5     6    2
    14     5     7   am
    15     7    11    1
    16    11    12   ar
    17    12    13   ar
    18    13    14   ar
    19    14    15    1
    20    14    16   ar
    21    16    17    1
    22    16    18   ar
    23     4     8    1
    24     8     9    1
    25    24    25    1
    26    25    20    1
    27     9     1    1
    28    18    11   ar
    29     7    10    1
@<TRIPOS>MOLECULE
*****
 27 29 0 0 0
SMALL
GASTEIGER

@<TRIPOS>ATOM
      1 N         141.0324  145.0048  159.9927 N.3     1  UNL1       -0.2697
      2 C         141.7282  143.7939  160.5401 C.3     1  UNL1        0.0940
      3 C         141.4027  143.3012  161.9190 C.3     1  UNL1        0.1123
      4 N         140.3814  144.0192  162.7504 N.am    1  UNL1       -0.2611
      5 C         140.0559  143.5265  164.1292 C.2     1  UNL1        0.3078
      6 O         139.0345  144.2446  164.9607 O.2     1  UNL1       -0.2522
      7 N         140.7517  142.3156  164.6766 N.am    1  UNL1       -0.2681
      8 C         139.6856  145.2301  162.2030 C.3     1  UNL1        0.1123
      9 C         140.0111  145.7229  160.8242 C.3     1  UNL1        0.0940
     10 H         141.4220  141.8443  164.1310 H       1  UNL1        0.1564
     11 C         140.4261  141.8228  166.0555 C.ar    1  UNL1        0.0525
     12 C         139.7659  140.4884  166.2387 C.ar    1  UNL1        0.0156
     13 C         139.4404  139.9956  167.6175 C.ar    1  UNL1        0.0135
     14 C         139.7750  140.8372  168.8131 C.ar    1  UNL1        0.0683
     15 CL        139.4494  140.3445  170.1920 Cl      1  UNL1       -0.0814
     16 C         140.4352  142.1716  168.6300 C.ar    1  UNL1        0.0694
     17 CL        140.7698  143.0133  169.8258 Cl      1  UNL1       -0.0813
     18 C         140.7607  142.6644  167.2512 C.ar    1  UNL1        0.0270
     19 C         141.3579  145.4976  158.6139 C.3     1  UNL1        0.0735
     20 N         138.5637  144.1135  156.1590 N.3     1  UNL1       -0.2726
     21 C         138.2357  145.3505  155.3766 C.3     1  UNL1        0.0721
     22 C         138.9485  146.6366  155.6733 C.3     1  UNL1        0.0174
     23 C         139.9892  146.6856  156.7523 C.3     1  UNL1        0.0042
     24 C         140.3171  145.4486  157.5347 C.3     1  UNL1        0.0320
     25 C         139.6044  144.1625  157.2381 C.3     1  UNL1        0.0734
     26 C         136.4980  142.8518  155.2151 C.3     1  UNL1        0.0188
     27 C         137.8509  142.8274  155.8623 C.3     1  UNL1        0.0721
@<TRIPOS>BOND
     1    26    27    1
     2    27    20    1
     3    20    21    1
     4    21    22    1
     5    22    23    1
     6    23    24    1
     7    24    19    1
     8    19     1    1
     9     1     2    1
    10     2     3    1
    11     3     4    1
    12     4     5   am
    13     5     6    2
    14     5     7   am
    15     7    11    1
    16    11    12   ar
    17    12    13   ar
    18    13    14   ar
    19    14    15    1
    20    14    16   ar
    21    16    17    1
    22    16    18   ar
    23     4     8    1
    24     8     9    1
    25    24    25    1
    26    25    20    1
    27     9     1    1
    28    18    11   ar
    29     7    10    1
@<TRIPOS>MOLECULE
*****
 27 29 0 0 0
SMALL
GASTEIGER

@<TRIPOS>ATOM
      1 N         140.4938  145.4664  155.7747 N.3     1  UNL1       -0.2697
      2 C         141.5613  146.1244  156.5977 C.3     1  UNL1        0.0940
      3 C         141.8629  145.6189  157.9775 C.3     1  UNL1        0.1123
      4 N         141.0969  144.4556  158.5341 N.am    1  UNL1       -0.2611
      5 C         141.3985  143.9502  159.9138 C.2     1  UNL1        0.3078
      6 O         140.6325  142.7868  160.4705 O.2     1  UNL1       -0.2522
      7 N         142.4661  144.6082  160.7369 N.am    1  UNL1       -0.2681
      8 C         140.0294  143.7976  157.7111 C.3     1  UNL1        0.1123
      9 C         139.7278  144.3030  156.3314 C.3     1  UNL1        0.0940
     10 H         142.9688  145.3717  160.3715 H       1  UNL1        0.1564
     11 C         142.7676  144.1027  162.1166 C.ar    1  UNL1        0.0525
     12 C         141.8170  144.3832  163.2425 C.ar    1  UNL1        0.0156
     13 C         142.1185  143.8778  164.6222 C.ar    1  UNL1        0.0135
     14 C         143.3707  143.0920  164.8760 C.ar    1  UNL1        0.0683
     15 CL        143.6722  142.5865  166.2558 Cl      1  UNL1       -0.0814
     16 C         144.3213  142.8116  163.7502 C.ar    1  UNL1        0.0694
     17 CL        145.5736  142.0257  164.0041 Cl      1  UNL1       -0.0813
     18 C         144.0198  143.3169  162.3705 C.ar    1  UNL1        0.0270
     19 C         140.1922  145.9718  154.3950 C.3     1  UNL1        0.0735
     20 N         139.0950  149.7496  154.9185 N.3     1  UNL1       -0.2726
     21 C         139.6589  150.3827  153.6811 C.3     1  UNL1        0.0721
     22 C         140.4006  149.5454  152.6817 C.3     1  UNL1        0.0174
     23 C         140.5784  148.0751  152.9196 C.3     1  UNL1        0.0042
     24 C         140.0144  147.4421  154.1570 C.3     1  UNL1        0.0320
     25 C         139.2727  148.2794  155.1565 C.3     1  UNL1        0.0734
     26 C         138.2312  150.1250  157.3398 C.3     1  UNL1        0.0188
     27 C         138.3533  150.5869  155.9180 C.3     1  UNL1        0.0721
@<TRIPOS>BOND
     1    26    27    1
     2    27    20    1
     3    20    21    1
     4    21    22    1
     5    22    23    1
     6    23    24    1
     7    24    19    1
     8    19     1    1
     9     1     2    1
    10     2     3    1
    11     3     4    1
    12     4     5   am
    13     5     6    2
    14     5     7   am
    15     7    11    1
    16    11    12   ar
    17    12    13   ar
    18    13    14   ar
    19    14    15    1
    20    14    16   ar
    21    16    17    1
    22    16    18   ar
    23     4     8    1
    24     8     9    1
    25    24    25    1
    26    25    20    1
    27     9     1    1
    28    18    11   ar
    29     7    10    1
@<TRIPOS>MOLECULE
*****
 27 29 0 0 0
SMALL
GASTEIGER

@<TRIPOS>ATOM
      1 N         141.9345  141.0593  159.3178 N.3     1  UNL1       -0.2697
      2 C         141.1397  139.7981  159.4842 C.3     1  UNL1        0.0940
      3 C         141.4818  138.5836  158.6730 C.3     1  UNL1        0.1123
      4 N         142.6185  138.6303  157.6955 N.am    1  UNL1       -0.2611
      5 C         142.9606  137.4158  156.8844 C.2     1  UNL1        0.3078
      6 O         144.0974  137.4624  155.9069 O.2     1  UNL1       -0.2522
      7 N         142.1658  136.1545  157.0508 N.am    1  UNL1       -0.2681
      8 C         143.4133  139.8915  157.5292 C.3     1  UNL1        0.1123
      9 C         143.0713  141.1060  158.3403 C.3     1  UNL1        0.0940
     10 H         141.4197  136.1239  157.6924 H       1  UNL1        0.1564
     11 C         142.5078  134.9400  156.2396 C.ar    1  UNL1        0.0525
     12 C         141.7480  134.6399  154.9816 C.ar    1  UNL1        0.0156
     13 C         142.0900  133.4254  154.1705 C.ar    1  UNL1        0.0135
     14 C         143.1919  132.5110  154.6173 C.ar    1  UNL1        0.0683
     15 CL        143.5339  131.2965  153.8061 Cl      1  UNL1       -0.0814
     16 C         143.9517  132.8111  155.8753 C.ar    1  UNL1        0.0694
     17 CL        145.0537  131.8967  156.3221 Cl      1  UNL1       -0.0813
     18 C         143.6097  134.0256  156.6865 C.ar    1  UNL1        0.0270
     19 C         141.5925  142.2739  160.1289 C.3     1  UNL1        0.0735
     20 N         144.4511  142.2370  162.8816 N.3     1  UNL1       -0.2726
     21 C         144.3509  143.6361  163.4130 C.3     1  UNL1        0.0721
     22 C         143.3312  144.5811  162.8498 C.3     1  UNL1        0.0174
     23 C         142.4118  144.1271  161.7551 C.3     1  UNL1        0.0042
     24 C         142.5120  142.7280  161.2237 C.3     1  UNL1        0.0320
     25 C         143.5316  141.7830  161.7869 C.3     1  UNL1        0.0734
     26 C         145.0339  139.9911  164.0503 C.3     1  UNL1        0.0188
     27 C         145.4708  141.2920  163.4448 C.3     1  UNL1        0.0721
@<TRIPOS>BOND
     1    26    27    1
     2    27    20    1
     3    20    21    1
     4    21    22    1
     5    22    23    1
     6    23    24    1
     7    24    19    1
     8    19     1    1
     9     1     2    1
    10     2     3    1
    11     3     4    1
    12     4     5   am
    13     5     6    2
    14     5     7   am
    15     7    11    1
    16    11    12   ar
    17    12    13   ar
    18    13    14   ar
    19    14    15    1
    20    14    16   ar
    21    16    17    1
    22    16    18   ar
    23     4     8    1
    24     8     9    1
    25    24    25    1
    26    25    20    1
    27     9     1    1
    28    18    11   ar
    29     7    10    1
@<TRIPOS>MOLECULE
*****
 27 29 0 0 0
SMALL
GASTEIGER

@<TRIPOS>ATOM
      1 N         143.1072  141.9182  160.6829 N.3     1  UNL1       -0.2697
      2 C         142.1641  140.7598  160.8198 C.3     1  UNL1        0.0940
      3 C         142.1658  139.6659  159.7934 C.3     1  UNL1        0.1123
      4 N         143.1105  139.7304  158.6301 N.am    1  UNL1       -0.2611
      5 C         143.1121  138.6365  157.6038 C.2     1  UNL1        0.3078
      6 O         144.0568  138.7010  156.4404 O.2     1  UNL1       -0.2522
      7 N         142.1690  137.4782  157.7408 N.am    1  UNL1       -0.2681
      8 C         144.0535  140.8888  158.4932 C.3     1  UNL1        0.1123
      9 C         144.0519  141.9827  159.5195 C.3     1  UNL1        0.0940
     10 H         141.5490  137.4358  158.5043 H       1  UNL1        0.1564
     11 C         142.1707  136.3842  156.7144 C.ar    1  UNL1        0.0525
     12 C         141.1895  136.4184  155.5803 C.ar    1  UNL1        0.0156
     13 C         141.1912  135.3246  154.5539 C.ar    1  UNL1        0.0135
     14 C         142.1739  134.1966  154.6616 C.ar    1  UNL1        0.0683
     15 CL        142.1756  133.1027  153.6352 Cl      1  UNL1       -0.0814
     16 C         143.1551  134.1624  155.7958 C.ar    1  UNL1        0.0694
     17 CL        144.1379  133.0342  155.9035 Cl      1  UNL1       -0.0813
     18 C         143.1534  135.2562  156.8221 C.ar    1  UNL1        0.0270
     19 C         143.1055  143.0121  161.7092 C.3     1  UNL1        0.0735
     20 N         139.9509  144.8103  163.3107 N.3     1  UNL1       -0.2726
     21 C         139.4996  145.6654  162.1639 C.3     1  UNL1        0.0721
     22 C         140.2502  145.6361  160.8656 C.3     1  UNL1        0.0174
     23 C         141.4522  144.7517  160.7140 C.3     1  UNL1        0.0042
     24 C         141.9035  143.8966  161.8607 C.3     1  UNL1        0.0320
     25 C         141.1529  143.9259  163.1591 C.3     1  UNL1        0.0734
     26 C         137.8780  144.1415  164.7268 C.3     1  UNL1        0.0188
     27 C         139.2003  144.8397  164.6090 C.3     1  UNL1        0.0721
@<TRIPOS>BOND
     1    26    27    1
     2    27    20    1
     3    20    21    1
     4    21    22    1
     5    22    23    1
     6    23    24    1
     7    24    19    1
     8    19     1    1
     9     1     2    1
    10     2     3    1
    11     3     4    1
    12     4     5   am
    13     5     6    2
    14     5     7   am
    15     7    11    1
    16    11    12   ar
    17    12    13   ar
    18    13    14   ar
    19    14    15    1
    20    14    16   ar
    21    16    17    1
    22    16    18   ar
    23     4     8    1
    24     8     9    1
    25    24    25    1
    26    25    20    1
    27     9     1    1
    28    18    11   ar
    29     7    10    1
@<TRIPOS>MOLECULE
*****
 27 29 0 0 0
SMALL
GASTEIGER

@<TRIPOS>ATOM
      1 N         140.2967  137.9417  162.0951 N.3     1  UNL1       -0.2697
      2 C         138.8574  138.3136  161.8945 C.3     1  UNL1        0.0940
      3 C         138.4288  138.9983  160.6306 C.3     1  UNL1        0.1123
      4 N         139.4394  139.3112  159.5673 N.am    1  UNL1       -0.2611
      5 C         139.0107  139.9959  158.3034 C.2     1  UNL1        0.3078
      6 O         140.0213  140.3088  157.2400 O.2     1  UNL1       -0.2522
      7 N         137.5714  140.3677  158.1029 N.am    1  UNL1       -0.2681
      8 C         140.8787  138.9393  159.7678 C.3     1  UNL1        0.1123
      9 C         141.3073  138.2546  161.0316 C.3     1  UNL1        0.0940
     10 H         136.9081  140.1623  158.8008 H       1  UNL1        0.1564
     11 C         137.1428  141.0524  156.8389 C.ar    1  UNL1        0.0525
     12 C         137.3336  142.5323  156.6859 C.ar    1  UNL1        0.0156
     13 C         136.9050  143.2171  155.4220 C.ar    1  UNL1        0.0135
     14 C         136.2855  142.4219  154.3112 C.ar    1  UNL1        0.0683
     15 CL        135.8569  143.1066  153.0473 Cl      1  UNL1       -0.0814
     16 C         136.0947  140.9420  154.4643 C.ar    1  UNL1        0.0694
     17 CL        135.4751  140.1468  153.3534 Cl      1  UNL1       -0.0813
     18 C         136.5233  140.2572  155.7281 C.ar    1  UNL1        0.0270
     19 C         140.7254  137.2570  163.3589 C.3     1  UNL1        0.0735
     20 N         140.5846  139.5284  166.6103 N.3     1  UNL1       -0.2726
     21 C         142.0462  139.6959  166.9025 C.3     1  UNL1        0.0721
     22 C         143.0676  139.0505  166.0136 C.3     1  UNL1        0.0174
     23 C         142.6273  138.2376  164.8324 C.3     1  UNL1        0.0042
     24 C         141.1657  138.0700  164.5402 C.3     1  UNL1        0.0320
     25 C         140.1443  138.7155  165.4291 C.3     1  UNL1        0.0734
     26 C         139.8020  140.2588  168.9776 C.3     1  UNL1        0.0188
     27 C         139.5632  140.1738  167.4992 C.3     1  UNL1        0.0721
@<TRIPOS>BOND
     1    26    27    1
     2    27    20    1
     3    20    21    1
     4    21    22    1
     5    22    23    1
     6    23    24    1
     7    24    19    1
     8    19     1    1
     9     1     2    1
    10     2     3    1
    11     3     4    1
    12     4     5   am
    13     5     6    2
    14     5     7   am
    15     7    11    1
    16    11    12   ar
    17    12    13   ar
    18    13    14   ar
    19    14    15    1
    20    14    16   ar
    21    16    17    1
    22    16    18   ar
    23     4     8    1
    24     8     9    1
    25    24    25    1
    26    25    20    1
    27     9     1    1
    28    18    11   ar
    29     7    10    1
