@<TRIPOS>MOLECULE
*****
 30 33 0 0 0
SMALL
GASTEIGER

@<TRIPOS>ATOM
      1 C         138.5878  139.7795  164.8146 C.ar    1  UNL1        0.0764
      2 C         138.2491  141.1692  164.3631 C.ar    1  UNL1        0.0176
      3 C         138.2971  141.5165  162.9047 C.ar    1  UNL1        0.0175
      4 C         138.6838  140.4741  161.8978 C.ar    1  UNL1        0.0705
      5 C         139.0225  139.0844  162.3493 C.ar    1  UNL1        0.0724
      6 N         138.9745  138.7371  163.8077 N.ar    1  UNL1       -0.2511
      7 C         139.4093  138.0420  161.3424 C.3     1  UNL1        0.0489
      8 C         139.4573  138.3893  159.8840 C.3     1  UNL1        0.0283
      9 C         139.1185  139.7791  159.4324 C.3     1  UNL1        0.1020
     10 N         138.7318  140.8215  160.4393 N.am    1  UNL1       -0.2239
     11 C         138.3931  142.2112  159.9878 C.2     1  UNL1        0.4086
     12 O         138.0064  143.2536  160.9947 O.2     1  UNL1       -0.2258
     13 C         137.8053  138.2061  166.7283 C.3     1  UNL1        0.0278
     14 C         138.5398  139.4322  166.2731 C.3     1  UNL1        0.1121
     15 N         139.2264  140.3109  167.2763 N.am    1  UNL1       -0.2973
     16 C         140.7242  140.3862  167.3067 C.2     1  UNL1        0.2461
     17 O         141.5355  139.5828  166.3338 O.2     1  UNL1       -0.2701
     18 H         138.6940  140.8382  167.9148 H       1  UNL1        0.1500
     19 C         141.4108  141.2649  168.3099 C.ar    1  UNL1        0.0535
     20 C         140.7076  142.4727  168.8546 C.ar    1  UNL1        0.0068
     21 C         141.3942  143.3514  169.8579 C.ar    1  UNL1        0.0298
     22 C         142.7840  143.0223  170.3163 C.ar    1  UNL1        0.1401
     23 F         143.4706  143.9010  171.3196 F       1  UNL1       -0.2042
     24 C         143.4871  141.8145  169.7716 C.ar    1  UNL1        0.0298
     25 C         142.8006  140.9358  168.7684 C.ar    1  UNL1        0.0068
     26 O         138.4411  142.5586  158.5293 O.3     1  UNL1       -0.4381
     27 C         139.3447  143.6551  158.0488 C.3     1  UNL1        0.1705
     28 C         140.3874  144.5257  158.6853 C.3     1  UNL1        0.0438
     29 C         140.6228  145.2059  157.3693 C.3     1  UNL1        0.0074
     30 C         139.5802  144.3354  156.7328 C.3     1  UNL1        0.0438
@<TRIPOS>BOND
     1    14    13    1
     2    14    15    1
     3    15    16   am
     4    16    17    2
     5    16    19    1
     6    19    20   ar
     7    20    21   ar
     8    21    22   ar
     9    22    23    1
    10    22    24   ar
    11    24    25   ar
    12    14     1    1
    13     1     2   ar
    14     2     3   ar
    15     3     4   ar
    16     4     5   ar
    17     5     6   ar
    18     5     7    1
    19     7     8    1
    20     8     9    1
    21     9    10    1
    22    10    11   am
    23    11    12    2
    24    11    26    1
    25    26    27    1
    26    27    28    1
    27    28    29    1
    28    29    30    1
    29    25    19   ar
    30     6     1   ar
    31    30    27    1
    32    10     4    1
    33    15    18    1
@<TRIPOS>MOLECULE
*****
 30 33 0 0 0
SMALL
GASTEIGER

@<TRIPOS>ATOM
      1 C         140.0141  144.4950  158.5285 C.ar    1  UNL1        0.0764
      2 C         139.2293  143.2254  158.6769 C.ar    1  UNL1        0.0176
      3 C         138.8522  142.7321  160.0423 C.ar    1  UNL1        0.0175
      4 C         139.2599  143.5085  161.2593 C.ar    1  UNL1        0.0705
      5 C         140.0447  144.7781  161.1109 C.ar    1  UNL1        0.0724
      6 N         140.4218  145.2714  159.7455 N.ar    1  UNL1       -0.2511
      7 C         140.4524  145.5544  162.3279 C.3     1  UNL1        0.0489
      8 C         140.0753  145.0612  163.6933 C.3     1  UNL1        0.0283
      9 C         139.2904  143.7915  163.8418 C.3     1  UNL1        0.1020
     10 N         138.8827  143.0151  162.6248 N.am    1  UNL1       -0.2239
     11 C         138.0979  141.7455  162.7732 C.2     1  UNL1        0.4086
     12 O         137.6902  140.9692  161.5562 O.2     1  UNL1       -0.2258
     13 C         140.8773  144.0218  156.1241 C.3     1  UNL1        0.0278
     14 C         140.3913  144.9884  157.1630 C.3     1  UNL1        0.1121
     15 N         140.2824  146.4484  156.8366 N.am    1  UNL1       -0.2973
     16 C         139.1785  146.9376  155.9467 C.2     1  UNL1        0.2461
     17 O         138.1833  145.9669  155.3833 O.2     1  UNL1       -0.2701
     18 H         140.9356  147.0855  157.2063 H       1  UNL1        0.1500
     19 C         139.0696  148.3976  155.6203 C.ar    1  UNL1        0.0535
     20 C         139.5715  148.9111  154.3032 C.ar    1  UNL1        0.0068
     21 C         139.4626  150.3711  153.9768 C.ar    1  UNL1        0.0298
     22 C         138.8518  151.3176  154.9673 C.ar    1  UNL1        0.1401
     23 F         138.7429  152.7776  154.6409 F       1  UNL1       -0.2042
     24 C         138.3499  150.8041  156.2843 C.ar    1  UNL1        0.0298
     25 C         138.4588  149.3441  156.6107 C.ar    1  UNL1        0.0068
     26 O         137.7207  141.2521  164.1387 O.3     1  UNL1       -0.4381
     27 C         138.2053  139.9142  164.6131 C.3     1  UNL1        0.1705
     28 C         138.2368  139.2050  165.9344 C.3     1  UNL1        0.0438
     29 C         138.8907  138.0221  165.2840 C.3     1  UNL1        0.0074
     30 C         138.8592  138.7313  163.9626 C.3     1  UNL1        0.0438
@<TRIPOS>BOND
     1    14    13    1
     2    14    15    1
     3    15    16   am
     4    16    17    2
     5    16    19    1
     6    19    20   ar
     7    20    21   ar
     8    21    22   ar
     9    22    23    1
    10    22    24   ar
    11    24    25   ar
    12    14     1    1
    13     1     2   ar
    14     2     3   ar
    15     3     4   ar
    16     4     5   ar
    17     5     6   ar
    18     5     7    1
    19     7     8    1
    20     8     9    1
    21     9    10    1
    22    10    11   am
    23    11    12    2
    24    11    26    1
    25    26    27    1
    26    27    28    1
    27    28    29    1
    28    29    30    1
    29    25    19   ar
    30     6     1   ar
    31    30    27    1
    32    10     4    1
    33    15    18    1
@<TRIPOS>MOLECULE
*****
 30 33 0 0 0
SMALL
GASTEIGER

@<TRIPOS>ATOM
      1 C         142.6626  138.1600  157.9670 C.ar    1  UNL1        0.0764
      2 C         142.7926  139.6193  157.6452 C.ar    1  UNL1        0.0176
      3 C         143.2564  140.5811  158.6986 C.ar    1  UNL1        0.0175
      4 C         143.5904  140.0836  160.0738 C.ar    1  UNL1        0.0705
      5 C         143.4604  138.6243  160.3955 C.ar    1  UNL1        0.0724
      6 N         142.9965  137.6625  159.3421 N.ar    1  UNL1       -0.2511
      7 C         143.7943  138.1269  161.7707 C.3     1  UNL1        0.0489
      8 C         144.2582  139.0887  162.8241 C.3     1  UNL1        0.0283
      9 C         144.3881  140.5480  162.5024 C.3     1  UNL1        0.1020
     10 N         144.0542  141.0455  161.1272 N.am    1  UNL1       -0.2239
     11 C         144.1842  142.5048  160.8055 C.2     1  UNL1        0.4086
     12 O         143.8503  143.0023  159.4303 O.2     1  UNL1       -0.2258
     13 C         141.4265  137.6983  155.7289 C.3     1  UNL1        0.0278
     14 C         142.1987  137.1981  156.9135 C.3     1  UNL1        0.1121
     15 N         142.5071  135.7360  157.0448 N.am    1  UNL1       -0.2973
     16 C         143.6521  135.1395  156.2813 C.2     1  UNL1        0.2461
     17 O         144.4889  136.0051  155.3864 O.2     1  UNL1       -0.2701
     18 H         141.9579  135.1680  157.6322 H       1  UNL1        0.1500
     19 C         143.9605  133.6774  156.4126 C.ar    1  UNL1        0.0535
     20 C         143.6622  132.7431  155.2776 C.ar    1  UNL1        0.0068
     21 C         143.9706  131.2811  155.4089 C.ar    1  UNL1        0.0298
     22 C         144.5772  130.7533  156.6752 C.ar    1  UNL1        0.1401
     23 F         144.8855  129.2912  156.8065 F       1  UNL1       -0.2042
     24 C         144.8754  131.6875  157.8102 C.ar    1  UNL1        0.0298
     25 C         144.5670  133.1496  157.6789 C.ar    1  UNL1        0.0068
     26 O         144.6481  143.4667  161.8589 O.3     1  UNL1       -0.4381
     27 C         143.6453  144.2480  162.6551 C.3     1  UNL1        0.1705
     28 C         143.6793  145.0147  163.9439 C.3     1  UNL1        0.0438
     29 C         142.2271  145.3530  163.7810 C.3     1  UNL1        0.0074
     30 C         142.1930  144.5863  162.4922 C.3     1  UNL1        0.0438
@<TRIPOS>BOND
     1    14    13    1
     2    14    15    1
     3    15    16   am
     4    16    17    2
     5    16    19    1
     6    19    20   ar
     7    20    21   ar
     8    21    22   ar
     9    22    23    1
    10    22    24   ar
    11    24    25   ar
    12    14     1    1
    13     1     2   ar
    14     2     3   ar
    15     3     4   ar
    16     4     5   ar
    17     5     6   ar
    18     5     7    1
    19     7     8    1
    20     8     9    1
    21     9    10    1
    22    10    11   am
    23    11    12    2
    24    11    26    1
    25    26    27    1
    26    27    28    1
    27    28    29    1
    28    29    30    1
    29    25    19   ar
    30     6     1   ar
    31    30    27    1
    32    10     4    1
    33    15    18    1
@<TRIPOS>MOLECULE
*****
 30 33 0 0 0
SMALL
GASTEIGER

@<TRIPOS>ATOM
      1 C         143.3061  142.4237  163.2824 C.ar    1  UNL1        0.0764
      2 C         143.7911  142.4370  161.8630 C.ar    1  UNL1        0.0176
      3 C         143.1206  143.3164  160.8496 C.ar    1  UNL1        0.0175
      4 C         141.9651  144.1824  161.2555 C.ar    1  UNL1        0.0705
      5 C         141.4801  144.1691  162.6749 C.ar    1  UNL1        0.0724
      6 N         142.1506  143.2897  163.6883 N.ar    1  UNL1       -0.2511
      7 C         140.3246  145.0351  163.0808 C.3     1  UNL1        0.0489
      8 C         139.6541  145.9145  162.0674 C.3     1  UNL1        0.0283
      9 C         140.1391  145.9279  160.6480 C.3     1  UNL1        0.1020
     10 N         141.2946  145.0619  160.2420 N.am    1  UNL1       -0.2239
     11 C         141.7796  145.0752  158.8227 C.2     1  UNL1        0.4086
     12 O         142.9351  144.2092  158.4168 O.2     1  UNL1       -0.2258
     13 C         145.2525  140.8366  163.9478 C.3     1  UNL1        0.0278
     14 C         143.9766  141.5442  164.2959 C.3     1  UNL1        0.1121
     15 N         143.3711  141.3725  165.6574 N.am    1  UNL1       -0.2973
     16 C         142.3381  140.3102  165.8903 C.2     1  UNL1        0.2461
     17 O         141.9105  139.4195  164.7615 O.2     1  UNL1       -0.2701
     18 H         143.6517  141.9570  166.3983 H       1  UNL1        0.1500
     19 C         141.7326  140.1384  167.2519 C.ar    1  UNL1        0.0535
     20 C         140.2984  140.5100  167.4872 C.ar    1  UNL1        0.0068
     21 C         139.6929  140.3382  168.8488 C.ar    1  UNL1        0.0298
     22 C         140.5216  139.7949  169.9750 C.ar    1  UNL1        0.1401
     23 F         139.9161  139.6232  171.3366 F       1  UNL1       -0.2042
     24 C         141.9556  139.4234  169.7396 C.ar    1  UNL1        0.0298
     25 C         142.5611  139.5952  168.3780 C.ar    1  UNL1        0.0068
     26 O         141.1091  145.9546  157.8092 O.3     1  UNL1       -0.4381
     27 C         140.0559  145.3877  156.9040 C.3     1  UNL1        0.1705
     28 C         139.2024  145.9334  155.7977 C.3     1  UNL1        0.0438
     29 C         138.5665  144.5860  155.6239 C.3     1  UNL1        0.0074
     30 C         139.4199  144.0404  156.7302 C.3     1  UNL1        0.0438
@<TRIPOS>BOND
     1    14    13    1
     2    14    15    1
     3    15    16   am
     4    16    17    2
     5    16    19    1
     6    19    20   ar
     7    20    21   ar
     8    21    22   ar
     9    22    23    1
    10    22    24   ar
    11    24    25   ar
    12    14     1    1
    13     1     2   ar
    14     2     3   ar
    15     3     4   ar
    16     4     5   ar
    17     5     6   ar
    18     5     7    1
    19     7     8    1
    20     8     9    1
    21     9    10    1
    22    10    11   am
    23    11    12    2
    24    11    26    1
    25    26    27    1
    26    27    28    1
    27    28    29    1
    28    29    30    1
    29    25    19   ar
    30     6     1   ar
    31    30    27    1
    32    10     4    1
    33    15    18    1
@<TRIPOS>MOLECULE
*****
 30 33 0 0 0
SMALL
GASTEIGER

@<TRIPOS>ATOM
      1 C         141.6516  139.2655  158.0715 C.ar    1  UNL1        0.0764
      2 C         141.4425  140.7509  158.0717 C.ar    1  UNL1        0.0176
      3 C         140.4654  141.3705  159.0262 C.ar    1  UNL1        0.0175
      4 C         139.6974  140.5048  159.9805 C.ar    1  UNL1        0.0705
      5 C         139.9065  139.0195  159.9803 C.ar    1  UNL1        0.0724
      6 N         140.8836  138.3999  159.0258 N.ar    1  UNL1       -0.2511
      7 C         139.1385  138.1539  160.9347 C.3     1  UNL1        0.0489
      8 C         138.1613  138.7735  161.8892 C.3     1  UNL1        0.0283
      9 C         137.9522  140.2589  161.8895 C.3     1  UNL1        0.1020
     10 N         138.7202  141.1246  160.9351 N.am    1  UNL1       -0.2239
     11 C         138.5111  142.6099  160.9353 C.2     1  UNL1        0.4086
     12 O         139.2791  143.4756  159.9810 O.2     1  UNL1       -0.2258
     13 C         143.2857  139.4882  156.0639 C.3     1  UNL1        0.0278
     14 C         142.6288  138.6458  157.1169 C.3     1  UNL1        0.1121
     15 N         142.9490  137.1837  157.2154 N.am    1  UNL1       -0.2973
     16 C         142.2193  136.1964  156.3536 C.2     1  UNL1        0.2461
     17 O         141.1693  136.6712  155.3933 O.2     1  UNL1       -0.2701
     18 H         143.6382  136.8721  157.8457 H       1  UNL1        0.1500
     19 C         142.5396  134.7343  156.4521 C.ar    1  UNL1        0.0535
     20 C         141.7865  133.7435  155.6147 C.ar    1  UNL1        0.0068
     21 C         142.1067  132.2814  155.7132 C.ar    1  UNL1        0.0298
     22 C         143.1800  131.8101  156.6492 C.ar    1  UNL1        0.1401
     23 F         143.5003  130.3480  156.7477 F       1  UNL1       -0.2042
     24 C         143.9331  132.8009  157.4865 C.ar    1  UNL1        0.0298
     25 C         143.6128  134.2630  157.3880 C.ar    1  UNL1        0.0068
     26 O         137.5339  143.2296  161.8899 O.3     1  UNL1       -0.4381
     27 C         138.0247  143.8752  163.1517 C.3     1  UNL1        0.1705
     28 C         137.6283  143.8157  164.5972 C.3     1  UNL1        0.0438
     29 C         138.7188  144.7883  164.9363 C.3     1  UNL1        0.0074
     30 C         139.1152  144.8478  163.4908 C.3     1  UNL1        0.0438
@<TRIPOS>BOND
     1    14    13    1
     2    14    15    1
     3    15    16   am
     4    16    17    2
     5    16    19    1
     6    19    20   ar
     7    20    21   ar
     8    21    22   ar
     9    22    23    1
    10    22    24   ar
    11    24    25   ar
    12    14     1    1
    13     1     2   ar
    14     2     3   ar
    15     3     4   ar
    16     4     5   ar
    17     5     6   ar
    18     5     7    1
    19     7     8    1
    20     8     9    1
    21     9    10    1
    22    10    11   am
    23    11    12    2
    24    11    26    1
    25    26    27    1
    26    27    28    1
    27    28    29    1
    28    29    30    1
    29    25    19   ar
    30     6     1   ar
    31    30    27    1
    32    10     4    1
    33    15    18    1
@<TRIPOS>MOLECULE
*****
 30 33 0 0 0
SMALL
GASTEIGER

@<TRIPOS>ATOM
      1 C         142.6453  138.4701  159.9240 C.ar    1  UNL1        0.0764
      2 C         143.8169  138.7723  160.8105 C.ar    1  UNL1        0.0176
      3 C         143.6594  138.7308  162.3016 C.ar    1  UNL1        0.0175
      4 C         142.3304  138.3870  162.9062 C.ar    1  UNL1        0.0705
      5 C         141.1588  138.0848  162.0196 C.ar    1  UNL1        0.0724
      6 N         141.3162  138.1264  160.5285 N.ar    1  UNL1       -0.2511
      7 C         139.8297  137.7411  162.6242 C.3     1  UNL1        0.0489
      8 C         139.6723  137.6996  164.1153 C.3     1  UNL1        0.0283
      9 C         140.8439  138.0018  165.0019 C.3     1  UNL1        0.1020
     10 N         142.1730  138.3455  164.3973 N.am    1  UNL1       -0.2239
     11 C         143.3445  138.6477  165.2839 C.2     1  UNL1        0.4086
     12 O         144.6736  138.9915  164.6793 O.2     1  UNL1       -0.2258
     13 C         142.6440  139.8095  157.6977 C.3     1  UNL1        0.0278
     14 C         142.8027  138.5116  158.4328 C.3     1  UNL1        0.1121
     15 N         143.1188  137.2552  157.6767 N.am    1  UNL1       -0.2973
     16 C         142.0437  136.5591  156.8961 C.2     1  UNL1        0.2461
     17 O         140.6524  137.1193  156.8715 O.2     1  UNL1       -0.2701
     18 H         144.0319  136.8876  157.6929 H       1  UNL1        0.1500
     19 C         142.3598  135.3027  156.1400 C.ar    1  UNL1        0.0535
     20 C         143.5610  134.4852  156.5128 C.ar    1  UNL1        0.0068
     21 C         143.8771  133.2288  155.7567 C.ar    1  UNL1        0.0298
     22 C         142.9920  132.7900  154.6279 C.ar    1  UNL1        0.1401
     23 F         143.3081  131.5336  153.8719 F       1  UNL1       -0.2042
     24 C         141.7909  133.6075  154.2553 C.ar    1  UNL1        0.0298
     25 C         141.4748  134.8638  155.0113 C.ar    1  UNL1        0.0068
     26 O         143.1871  138.6062  166.7751 O.3     1  UNL1       -0.4381
     27 C         142.8388  139.8561  167.5276 C.3     1  UNL1        0.1705
     28 C         142.6452  141.2971  167.1586 C.3     1  UNL1        0.0438
     29 C         142.3461  141.6239  168.5917 C.3     1  UNL1        0.0074
     30 C         142.5397  140.1829  168.9607 C.3     1  UNL1        0.0438
@<TRIPOS>BOND
     1    14    13    1
     2    14    15    1
     3    15    16   am
     4    16    17    2
     5    16    19    1
     6    19    20   ar
     7    20    21   ar
     8    21    22   ar
     9    22    23    1
    10    22    24   ar
    11    24    25   ar
    12    14     1    1
    13     1     2   ar
    14     2     3   ar
    15     3     4   ar
    16     4     5   ar
    17     5     6   ar
    18     5     7    1
    19     7     8    1
    20     8     9    1
    21     9    10    1
    22    10    11   am
    23    11    12    2
    24    11    26    1
    25    26    27    1
    26    27    28    1
    27    28    29    1
    28    29    30    1
    29    25    19   ar
    30     6     1   ar
    31    30    27    1
    32    10     4    1
    33    15    18    1
@<TRIPOS>MOLECULE
*****
 30 33 0 0 0
SMALL
GASTEIGER

@<TRIPOS>ATOM
      1 C         142.2823  137.7878  158.0340 C.ar    1  UNL1        0.0764
      2 C         140.8283  138.1553  158.0609 C.ar    1  UNL1        0.0176
      3 C         140.1599  138.4769  159.3646 C.ar    1  UNL1        0.0175
      4 C         140.9456  138.4309  160.6416 C.ar    1  UNL1        0.0705
      5 C         142.3996  138.0634  160.6148 C.ar    1  UNL1        0.0724
      6 N         143.0679  137.7418  159.3110 N.ar    1  UNL1       -0.2511
      7 C         143.1853  138.0174  161.8917 C.3     1  UNL1        0.0489
      8 C         142.5169  138.3390  163.1955 C.3     1  UNL1        0.0283
      9 C         141.0628  138.7065  163.2224 C.3     1  UNL1        0.1020
     10 N         140.2772  138.7525  161.9454 N.am    1  UNL1       -0.2239
     11 C         138.8232  139.1200  161.9722 C.2     1  UNL1        0.4086
     12 O         138.0375  139.1660  160.6953 O.2     1  UNL1       -0.2258
     13 C         143.0152  138.5001  155.6454 C.3     1  UNL1        0.0278
     14 C         142.9507  137.4662  156.7302 C.3     1  UNL1        0.1121
     15 N         143.5546  136.1107  156.5113 N.am    1  UNL1       -0.2973
     16 C         142.7147  134.9949  155.9641 C.2     1  UNL1        0.2461
     17 O         141.2708  135.2346  155.6358 O.2     1  UNL1       -0.2701
     18 H         144.5023  135.9534  156.7268 H       1  UNL1        0.1500
     19 C         143.3187  133.6394  155.7452 C.ar    1  UNL1        0.0535
     20 C         144.3532  133.1166  156.6974 C.ar    1  UNL1        0.0068
     21 C         144.9571  131.7611  156.4785 C.ar    1  UNL1        0.0298
     22 C         144.5266  130.9285  155.3074 C.ar    1  UNL1        0.1401
     23 F         145.1305  129.5730  155.0885 F       1  UNL1       -0.2042
     24 C         143.4921  131.4513  154.3553 C.ar    1  UNL1        0.0298
     25 C         142.8882  132.8068  154.5742 C.ar    1  UNL1        0.0068
     26 O         138.1547  139.4416  163.2761 O.3     1  UNL1       -0.4381
     27 C         138.0502  140.8661  163.7340 C.3     1  UNL1        0.1705
     28 C         138.5679  141.6437  164.9076 C.3     1  UNL1        0.0438
     29 C         137.9024  142.8807  164.3816 C.3     1  UNL1        0.0074
     30 C         137.3846  142.1032  163.2080 C.3     1  UNL1        0.0438
@<TRIPOS>BOND
     1    14    13    1
     2    14    15    1
     3    15    16   am
     4    16    17    2
     5    16    19    1
     6    19    20   ar
     7    20    21   ar
     8    21    22   ar
     9    22    23    1
    10    22    24   ar
    11    24    25   ar
    12    14     1    1
    13     1     2   ar
    14     2     3   ar
    15     3     4   ar
    16     4     5   ar
    17     5     6   ar
    18     5     7    1
    19     7     8    1
    20     8     9    1
    21     9    10    1
    22    10    11   am
    23    11    12    2
    24    11    26    1
    25    26    27    1
    26    27    28    1
    27    28    29    1
    28    29    30    1
    29    25    19   ar
    30     6     1   ar
    31    30    27    1
    32    10     4    1
    33    15    18    1
@<TRIPOS>MOLECULE
*****
 30 33 0 0 0
SMALL
GASTEIGER

@<TRIPOS>ATOM
      1 C         142.3844  138.2606  158.4252 C.ar    1  UNL1        0.0764
      2 C         140.9550  138.6466  158.6657 C.ar    1  UNL1        0.0176
      3 C         140.4989  139.0110  160.0474 C.ar    1  UNL1        0.0175
      4 C         141.4722  138.9895  161.1886 C.ar    1  UNL1        0.0705
      5 C         142.9015  138.6035  160.9481 C.ar    1  UNL1        0.0724
      6 N         143.3577  138.2391  159.5664 N.ar    1  UNL1       -0.2511
      7 C         143.8748  138.5819  162.0893 C.3     1  UNL1        0.0489
      8 C         143.4187  138.9463  163.4710 C.3     1  UNL1        0.0283
      9 C         141.9893  139.3323  163.7116 C.3     1  UNL1        0.1020
     10 N         141.0160  139.3539  162.5704 N.am    1  UNL1       -0.2239
     11 C         139.5866  139.7399  162.8109 C.2     1  UNL1        0.4086
     12 O         138.6134  139.7615  161.6697 O.2     1  UNL1       -0.2258
     13 C         142.7129  138.8880  155.9255 C.3     1  UNL1        0.0278
     14 C         142.8406  137.8962  157.0435 C.3     1  UNL1        0.1121
     15 N         143.4245  136.5399  156.7798 N.am    1  UNL1       -0.2973
     16 C         142.5605  135.4463  156.2252 C.2     1  UNL1        0.2461
     17 O         141.1126  135.7090  155.9343 O.2     1  UNL1       -0.2701
     18 H         144.3748  136.3675  156.9707 H       1  UNL1        0.1500
     19 C         143.1444  134.0900  155.9616 C.ar    1  UNL1        0.0535
     20 C         142.7388  133.3239  154.7373 C.ar    1  UNL1        0.0068
     21 C         143.3227  131.9676  154.4736 C.ar    1  UNL1        0.0298
     22 C         144.3122  131.3774  155.4342 C.ar    1  UNL1        0.1401
     23 F         144.8961  130.0211  155.1705 F       1  UNL1       -0.2042
     24 C         144.7178  132.1435  156.6584 C.ar    1  UNL1        0.0298
     25 C         144.1339  133.4998  156.9220 C.ar    1  UNL1        0.0068
     26 O         139.1305  140.1043  164.1926 O.3     1  UNL1       -0.4381
     27 C         138.6795  139.0329  165.1405 C.3     1  UNL1        0.1705
     28 C         137.9866  139.0166  166.4708 C.3     1  UNL1        0.0438
     29 C         138.0416  137.5176  166.4811 C.3     1  UNL1        0.0074
     30 C         138.7346  137.5339  165.1508 C.3     1  UNL1        0.0438
@<TRIPOS>BOND
     1    14    13    1
     2    14    15    1
     3    15    16   am
     4    16    17    2
     5    16    19    1
     6    19    20   ar
     7    20    21   ar
     8    21    22   ar
     9    22    23    1
    10    22    24   ar
    11    24    25   ar
    12    14     1    1
    13     1     2   ar
    14     2     3   ar
    15     3     4   ar
    16     4     5   ar
    17     5     6   ar
    18     5     7    1
    19     7     8    1
    20     8     9    1
    21     9    10    1
    22    10    11   am
    23    11    12    2
    24    11    26    1
    25    26    27    1
    26    27    28    1
    27    28    29    1
    28    29    30    1
    29    25    19   ar
    30     6     1   ar
    31    30    27    1
    32    10     4    1
    33    15    18    1
@<TRIPOS>MOLECULE
*****
 30 33 0 0 0
SMALL
GASTEIGER

@<TRIPOS>ATOM
      1 C         139.1519  139.3361  164.7532 C.ar    1  UNL1        0.0764
      2 C         138.1082  138.5147  165.4502 C.ar    1  UNL1        0.0176
      3 C         137.8893  138.6752  166.9254 C.ar    1  UNL1        0.0175
      4 C         138.7141  139.6570  167.7036 C.ar    1  UNL1        0.0705
      5 C         139.7579  140.4784  167.0066 C.ar    1  UNL1        0.0724
      6 N         139.9768  140.3180  165.5314 N.ar    1  UNL1       -0.2511
      7 C         140.5827  141.4602  167.7848 C.3     1  UNL1        0.0489
      8 C         140.3639  141.6207  169.2600 C.3     1  UNL1        0.0283
      9 C         139.3201  140.7993  169.9571 C.3     1  UNL1        0.1020
     10 N         138.4952  139.8174  169.1789 N.am    1  UNL1       -0.2239
     11 C         137.4515  138.9960  169.8759 C.2     1  UNL1        0.4086
     12 O         136.6266  138.0142  169.0977 O.2     1  UNL1       -0.2258
     13 C         139.1312  137.8471  162.6242 C.3     1  UNL1        0.0278
     14 C         139.3708  139.1757  163.2779 C.3     1  UNL1        0.1121
     15 N         139.8294  140.3440  162.4563 N.am    1  UNL1       -0.2973
     16 C         138.8278  141.3246  161.9223 C.2     1  UNL1        0.2461
     17 O         137.3676  141.1370  162.2098 O.2     1  UNL1       -0.2701
     18 H         140.7877  140.4671  162.2676 H       1  UNL1        0.1500
     19 C         139.2864  142.4928  161.1008 C.ar    1  UNL1        0.0535
     20 C         139.5829  143.8055  161.7635 C.ar    1  UNL1        0.0068
     21 C         140.0414  144.9737  160.9420 C.ar    1  UNL1        0.0298
     22 C         140.2035  144.8293  159.4577 C.ar    1  UNL1        0.1401
     23 F         140.6621  145.9975  158.6362 F       1  UNL1       -0.2042
     24 C         139.9070  143.5167  158.7951 C.ar    1  UNL1        0.0298
     25 C         139.4484  142.3485  159.6166 C.ar    1  UNL1        0.0068
     26 O         137.2326  139.1564  171.3512 O.3     1  UNL1       -0.4381
     27 C         136.4574  138.1214  172.1113 C.3     1  UNL1        0.1705
     28 C         135.0948  138.0633  172.7357 C.3     1  UNL1        0.0438
     29 C         135.3612  136.6576  173.1863 C.3     1  UNL1        0.0074
     30 C         136.7238  136.7157  172.5619 C.3     1  UNL1        0.0438
@<TRIPOS>BOND
     1    14    13    1
     2    14    15    1
     3    15    16   am
     4    16    17    2
     5    16    19    1
     6    19    20   ar
     7    20    21   ar
     8    21    22   ar
     9    22    23    1
    10    22    24   ar
    11    24    25   ar
    12    14     1    1
    13     1     2   ar
    14     2     3   ar
    15     3     4   ar
    16     4     5   ar
    17     5     6   ar
    18     5     7    1
    19     7     8    1
    20     8     9    1
    21     9    10    1
    22    10    11   am
    23    11    12    2
    24    11    26    1
    25    26    27    1
    26    27    28    1
    27    28    29    1
    28    29    30    1
    29    25    19   ar
    30     6     1   ar
    31    30    27    1
    32    10     4    1
    33    15    18    1
