@<TRIPOS>MOLECULE
*****
 35 38 0 0 0
SMALL
GASTEIGER

@<TRIPOS>ATOM
      1 C         141.5178  142.1891  163.7864 C.ar    1  UNL1        0.1102
      2 N         142.2591  141.8607  162.5244 N.ar    1  UNL1       -0.2306
      3 C         143.7086  142.2225  162.3904 C.ar    1  UNL1        0.1342
      4 C         144.4168  142.9126  163.5183 C.ar    1  UNL1        0.0368
      5 C         143.6755  143.2410  164.7802 C.ar    1  UNL1        0.0338
      6 C         142.2259  142.8792  164.9143 C.ar    1  UNL1        0.1556
      7 F         141.4846  143.2076  166.1763 F       1  UNL1       -0.2029
      8 C         138.8895  137.6202  164.9977 C.3     1  UNL1        0.0320
      9 C         139.2824  139.0226  164.6386 C.3     1  UNL1        0.1155
     10 C         138.2258  140.0632  164.4136 C.3     1  UNL1        0.0328
     11 C         138.6187  141.4656  164.0546 C.3     1  UNL1        0.0422
     12 C         137.5621  142.5062  163.8295 C.3     1  UNL1        0.0673
     13 S         137.9550  143.9086  163.4705 S.3     1  UNL1       -0.0807
     14 C         139.4046  144.2703  163.3364 C.2     1  UNL1        0.1483
     15 N         139.7975  145.6727  162.9773 N.pl3   1  UNL1       -0.3380
     16 N         140.4612  143.2297  163.5614 N.2     1  UNL1       -0.2468
     17 C         140.0682  141.8273  163.9205 C.3     1  UNL1        0.1513
     18 C         141.1248  140.7867  164.1455 C.3     1  UNL1        0.1701
     19 O         140.7319  139.3843  164.5046 O.3     1  UNL1       -0.3538
     20 H         139.1040  146.3557  162.8297 H       1  UNL1        0.1442
     21 H         140.7489  145.9102  162.8894 H       1  UNL1        0.1442
     22 N         144.4500  141.8941  161.1284 N.am    1  UNL1       -0.2646
     23 C         144.1485  142.6439  159.8647 C.2     1  UNL1        0.2683
     24 O         143.1056  143.7221  159.8630 O.2     1  UNL1       -0.2681
     25 H         145.1345  141.1865  161.1295 H       1  UNL1        0.1566
     26 C         144.8898  142.3156  158.6027 C.ar    1  UNL1        0.1350
     27 C         144.3091  141.3380  157.6244 C.ar    1  UNL1        0.0269
     28 C         145.0504  141.0097  156.3625 C.ar    1  UNL1        0.0404
     29 C         146.3726  141.6589  156.0788 C.ar    1  UNL1        0.1634
     30 C         146.9533  142.6365  157.0571 C.ar    1  UNL1        0.1359
     31 N         146.2119  142.9648  158.3191 N.ar    1  UNL1       -0.2361
     32 O         147.1139  141.3306  154.8168 O.3     1  UNL1       -0.4220
     33 C         148.5256  141.8026  154.6318 C.3     1  UNL1        0.5087
     34 F         148.8399  142.8398  153.5949 F       1  UNL1       -0.1550
     35 F         149.6231  141.2374  155.4839 F       1  UNL1       -0.1550
@<TRIPOS>BOND
     1     9     8    1
     2     9    10    1
     3    11    10    1
     4    11    12    1
     5    12    13    1
     6    13    14    1
     7    14    15    1
     8    14    16    2
     9    16    17    1
    10    17     1    1
    11     1     2   ar
    12     2     3   ar
    13     3    22    1
    14    22    23   am
    15    23    24    2
    16    23    26    1
    17    26    27   ar
    18    27    28   ar
    19    28    29   ar
    20    29    32    1
    21    32    33    1
    22    33    34    1
    23    33    35    1
    24    29    30   ar
    25    30    31   ar
    26     3     4   ar
    27     4     5   ar
    28     5     6   ar
    29     6     7    1
    30    17    18    1
    31    18    19    1
    32    19     9    1
    33    17    11    1
    34     6     1   ar
    35    31    26   ar
    36    15    20    1
    37    15    21    1
    38    22    25    1
@<TRIPOS>MOLECULE
*****
 35 38 0 0 0
SMALL
GASTEIGER

@<TRIPOS>ATOM
      1 C         140.6767  142.7046  163.9444 C.ar    1  UNL1        0.1102
      2 N         140.6065  143.1165  162.5037 N.ar    1  UNL1       -0.2306
      3 C         139.8140  144.3268  162.1075 C.ar    1  UNL1        0.1342
      4 C         139.0916  145.1253  163.1519 C.ar    1  UNL1        0.0368
      5 C         139.1619  144.7134  164.5925 C.ar    1  UNL1        0.0338
      6 C         139.9544  143.5031  164.9888 C.ar    1  UNL1        0.1556
      7 F         140.0246  143.0912  166.4294 F       1  UNL1       -0.2029
      8 C         145.9496  141.5019  163.9203 C.3     1  UNL1        0.0320
      9 C         144.4561  141.4994  164.0604 C.3     1  UNL1        0.1155
     10 C         143.7552  140.2866  164.5967 C.3     1  UNL1        0.0328
     11 C         142.2618  140.2840  164.7368 C.3     1  UNL1        0.0422
     12 C         141.5609  139.0711  165.2731 C.3     1  UNL1        0.0673
     13 S         140.0674  139.0685  165.4132 S.3     1  UNL1       -0.0807
     14 C         139.2749  140.2789  165.0170 C.2     1  UNL1        0.1483
     15 N         137.7814  140.2764  165.1571 N.pl3   1  UNL1       -0.3380
     16 N         139.9758  141.4918  164.4807 N.2     1  UNL1       -0.2468
     17 C         141.4692  141.4943  164.3406 C.3     1  UNL1        0.1513
     18 C         142.1702  142.7072  163.8043 C.3     1  UNL1        0.1701
     19 O         143.6636  142.7097  163.6642 O.3     1  UNL1       -0.3538
     20 H         137.3214  139.4803  165.5091 H       1  UNL1        0.1442
     21 H         137.2613  141.0708  164.8971 H       1  UNL1        0.1442
     22 N         139.7437  144.7388  160.6668 N.am    1  UNL1       -0.2646
     23 C         141.0062  144.9736  159.8915 C.2     1  UNL1        0.2683
     24 O         142.3388  144.7966  160.5569 O.2     1  UNL1       -0.2681
     25 H         138.8690  144.8550  160.2301 H       1  UNL1        0.1566
     26 C         140.9360  145.3855  158.4509 C.ar    1  UNL1        0.1350
     27 C         142.0565  145.0383  157.5161 C.ar    1  UNL1        0.0269
     28 C         141.9863  145.4502  156.0755 C.ar    1  UNL1        0.0404
     29 C         140.7955  146.2094  155.5697 C.ar    1  UNL1        0.1634
     30 C         139.6750  146.5566  156.5045 C.ar    1  UNL1        0.1359
     31 N         139.7452  146.1447  157.9451 N.ar    1  UNL1       -0.2361
     32 O         140.7254  146.6213  154.1291 O.3     1  UNL1       -0.4220
     33 C         140.4430  148.0502  153.7705 C.3     1  UNL1        0.5087
     34 F         141.3458  148.7768  152.8182 F       1  UNL1       -0.1550
     35 F         139.2580  148.7524  154.3641 F       1  UNL1       -0.1550
@<TRIPOS>BOND
     1     9     8    1
     2     9    10    1
     3    11    10    1
     4    11    12    1
     5    12    13    1
     6    13    14    1
     7    14    15    1
     8    14    16    2
     9    16    17    1
    10    17     1    1
    11     1     2   ar
    12     2     3   ar
    13     3    22    1
    14    22    23   am
    15    23    24    2
    16    23    26    1
    17    26    27   ar
    18    27    28   ar
    19    28    29   ar
    20    29    32    1
    21    32    33    1
    22    33    34    1
    23    33    35    1
    24    29    30   ar
    25    30    31   ar
    26     3     4   ar
    27     4     5   ar
    28     5     6   ar
    29     6     7    1
    30    17    18    1
    31    18    19    1
    32    19     9    1
    33    17    11    1
    34     6     1   ar
    35    31    26   ar
    36    15    20    1
    37    15    21    1
    38    22    25    1
@<TRIPOS>MOLECULE
*****
 35 38 0 0 0
SMALL
GASTEIGER

@<TRIPOS>ATOM
      1 C         143.0437  141.1367  163.5968 C.ar    1  UNL1        0.1102
      2 N         142.4806  142.0858  162.5808 N.ar    1  UNL1       -0.2306
      3 C         143.3986  142.8109  161.6420 C.ar    1  UNL1        0.1342
      4 C         144.8797  142.5870  161.7191 C.ar    1  UNL1        0.0368
      5 C         145.4429  141.6380  162.7350 C.ar    1  UNL1        0.0338
      6 C         144.5249  140.9128  163.6739 C.ar    1  UNL1        0.1556
      7 F         145.0881  139.9638  164.6898 F       1  UNL1       -0.2029
      8 C         140.5025  142.5148  168.1677 C.3     1  UNL1        0.0320
      9 C         141.0436  141.8137  166.9570 C.3     1  UNL1        0.1155
     10 C         140.6666  140.3876  166.6852 C.3     1  UNL1        0.0328
     11 C         141.2077  139.6865  165.4745 C.3     1  UNL1        0.0422
     12 C         140.8307  138.2603  165.2026 C.3     1  UNL1        0.0673
     13 S         141.3718  137.5592  163.9920 S.3     1  UNL1       -0.0807
     14 C         142.2899  138.2844  163.0531 C.2     1  UNL1        0.1483
     15 N         142.8309  137.5834  161.8424 N.pl3   1  UNL1       -0.3380
     16 N         142.6668  139.7106  163.3250 N.2     1  UNL1       -0.2468
     17 C         142.1257  140.4116  164.5356 C.3     1  UNL1        0.1513
     18 C         142.5026  141.8378  164.8075 C.3     1  UNL1        0.1701
     19 O         141.9616  142.5388  166.0182 O.3     1  UNL1       -0.3538
     20 H         142.5835  136.6473  161.6640 H       1  UNL1        0.1442
     21 H         143.4335  138.0593  161.2262 H       1  UNL1        0.1442
     22 N         142.8354  143.7600  160.6260 N.am    1  UNL1       -0.2646
     23 C         142.5998  143.2987  159.2183 C.2     1  UNL1        0.2683
     24 O         142.9274  141.8882  158.8266 O.2     1  UNL1       -0.2681
     25 H         142.6204  144.6857  160.8832 H       1  UNL1        0.1566
     26 C         142.0367  144.2477  158.2024 C.ar    1  UNL1        0.1350
     27 C         140.9314  145.1868  158.5849 C.ar    1  UNL1        0.0269
     28 C         140.3682  146.1358  157.5690 C.ar    1  UNL1        0.0404
     29 C         140.9104  146.1457  156.1704 C.ar    1  UNL1        0.1634
     30 C         142.0157  145.2066  155.7878 C.ar    1  UNL1        0.1359
     31 N         142.5788  144.2575  156.8038 N.ar    1  UNL1       -0.2361
     32 O         140.3472  147.0947  155.1544 O.3     1  UNL1       -0.4220
     33 C         138.8933  147.4613  155.1954 C.3     1  UNL1        0.5087
     34 F         138.4843  148.8758  155.4814 F       1  UNL1       -0.1550
     35 F         137.8484  146.4134  154.9504 F       1  UNL1       -0.1550
@<TRIPOS>BOND
     1     9     8    1
     2     9    10    1
     3    11    10    1
     4    11    12    1
     5    12    13    1
     6    13    14    1
     7    14    15    1
     8    14    16    2
     9    16    17    1
    10    17     1    1
    11     1     2   ar
    12     2     3   ar
    13     3    22    1
    14    22    23   am
    15    23    24    2
    16    23    26    1
    17    26    27   ar
    18    27    28   ar
    19    28    29   ar
    20    29    32    1
    21    32    33    1
    22    33    34    1
    23    33    35    1
    24    29    30   ar
    25    30    31   ar
    26     3     4   ar
    27     4     5   ar
    28     5     6   ar
    29     6     7    1
    30    17    18    1
    31    18    19    1
    32    19     9    1
    33    17    11    1
    34     6     1   ar
    35    31    26   ar
    36    15    20    1
    37    15    21    1
    38    22    25    1
@<TRIPOS>MOLECULE
*****
 35 38 0 0 0
SMALL
GASTEIGER

@<TRIPOS>ATOM
      1 C         142.0163  140.3334  165.6685 C.ar    1  UNL1        0.1102
      2 N         141.6669  141.0807  164.4157 N.ar    1  UNL1       -0.2306
      3 C         142.5389  140.9582  163.2014 C.ar    1  UNL1        0.1342
      4 C         143.7604  140.0883  163.2399 C.ar    1  UNL1        0.0368
      5 C         144.1098  139.3410  164.4926 C.ar    1  UNL1        0.0338
      6 C         143.2377  139.4635  165.7070 C.ar    1  UNL1        0.1556
      7 F         143.5871  138.7162  166.9597 F       1  UNL1       -0.2029
      8 C         137.3014  138.1285  167.1375 C.3     1  UNL1        0.0320
      9 C         138.5824  138.9043  167.0526 C.3     1  UNL1        0.1155
     10 C         138.9913  139.8027  168.1820 C.3     1  UNL1        0.0328
     11 C         140.2723  140.5785  168.0971 C.3     1  UNL1        0.0422
     12 C         140.6812  141.4770  169.2266 C.3     1  UNL1        0.0673
     13 S         141.9622  142.2528  169.1417 S.3     1  UNL1       -0.0807
     14 C         142.8342  142.1302  167.9273 C.2     1  UNL1        0.1483
     15 N         144.1152  142.9060  167.8424 N.pl3   1  UNL1       -0.3380
     16 N         142.4253  141.2318  166.7979 N.2     1  UNL1       -0.2468
     17 C         141.1443  140.4560  166.8828 C.3     1  UNL1        0.1513
     18 C         140.7354  139.5576  165.7534 C.3     1  UNL1        0.1701
     19 O         139.4544  138.7817  165.8383 O.3     1  UNL1       -0.3538
     20 H         144.3836  143.4957  168.5837 H       1  UNL1        0.1442
     21 H         144.6875  142.8256  167.0454 H       1  UNL1        0.1442
     22 N         142.1896  141.7055  161.9486 N.am    1  UNL1       -0.2646
     23 C         142.4171  143.1861  161.8703 C.2     1  UNL1        0.2683
     24 O         142.9941  143.9193  163.0449 O.2     1  UNL1       -0.2681
     25 H         141.8109  141.2242  161.1777 H       1  UNL1        0.1566
     26 C         142.0678  143.9334  160.6176 C.ar    1  UNL1        0.1350
     27 C         140.9138  144.8916  160.6130 C.ar    1  UNL1        0.0269
     28 C         140.5644  145.6389  159.3603 C.ar    1  UNL1        0.0404
     29 C         141.3691  145.4281  158.1120 C.ar    1  UNL1        0.1634
     30 C         142.5232  144.4699  158.1166 C.ar    1  UNL1        0.1359
     31 N         142.8725  143.7225  159.3694 N.ar    1  UNL1       -0.2361
     32 O         141.0198  146.1754  156.8593 O.3     1  UNL1       -0.4220
     33 C         139.5874  146.5003  156.5545 C.3     1  UNL1        0.5087
     34 F         138.9887  147.7846  157.0465 F       1  UNL1       -0.1550
     35 F         138.7539  145.5410  155.7577 F       1  UNL1       -0.1550
@<TRIPOS>BOND
     1     9     8    1
     2     9    10    1
     3    11    10    1
     4    11    12    1
     5    12    13    1
     6    13    14    1
     7    14    15    1
     8    14    16    2
     9    16    17    1
    10    17     1    1
    11     1     2   ar
    12     2     3   ar
    13     3    22    1
    14    22    23   am
    15    23    24    2
    16    23    26    1
    17    26    27   ar
    18    27    28   ar
    19    28    29   ar
    20    29    32    1
    21    32    33    1
    22    33    34    1
    23    33    35    1
    24    29    30   ar
    25    30    31   ar
    26     3     4   ar
    27     4     5   ar
    28     5     6   ar
    29     6     7    1
    30    17    18    1
    31    18    19    1
    32    19     9    1
    33    17    11    1
    34     6     1   ar
    35    31    26   ar
    36    15    20    1
    37    15    21    1
    38    22    25    1
@<TRIPOS>MOLECULE
*****
 35 38 0 0 0
SMALL
GASTEIGER

@<TRIPOS>ATOM
      1 C         142.0273  141.0635  163.3993 C.ar    1  UNL1        0.1102
      2 N         141.6991  140.3735  162.1084 N.ar    1  UNL1       -0.2306
      3 C         141.8995  138.8928  161.9775 C.ar    1  UNL1        0.1342
      4 C         142.4281  138.1020  163.1373 C.ar    1  UNL1        0.0368
      5 C         142.7563  138.7919  164.4281 C.ar    1  UNL1        0.0338
      6 C         142.5559  140.2728  164.5591 C.ar    1  UNL1        0.1556
      7 F         142.8841  140.9627  165.8499 F       1  UNL1       -0.2029
      8 C         137.8279  144.1699  164.8014 C.3     1  UNL1        0.0320
      9 C         139.1609  143.6280  164.3777 C.3     1  UNL1        0.1155
     10 C         140.2935  144.5669  164.0849 C.3     1  UNL1        0.0328
     11 C         141.6265  144.0250  163.6611 C.3     1  UNL1        0.0422
     12 C         142.7591  144.9640  163.3683 C.3     1  UNL1        0.0673
     13 S         144.0920  144.4221  162.9446 S.3     1  UNL1       -0.0807
     14 C         144.2924  142.9413  162.8137 C.2     1  UNL1        0.1483
     15 N         145.6254  142.3994  162.3899 N.pl3   1  UNL1       -0.3380
     16 N         143.1598  142.0024  163.1065 N.2     1  UNL1       -0.2468
     17 C         141.8269  142.5443  163.5302 C.3     1  UNL1        0.1513
     18 C         140.6943  141.6054  163.8230 C.3     1  UNL1        0.1701
     19 O         139.3613  142.1473  164.2467 O.3     1  UNL1       -0.3538
     20 H         146.3687  143.0156  162.1978 H       1  UNL1        0.1442
     21 H         145.7569  141.4275  162.3040 H       1  UNL1        0.1442
     22 N         141.5713  138.2027  160.6866 N.am    1  UNL1       -0.2646
     23 C         142.5388  138.2544  159.5415 C.2     1  UNL1        0.2683
     24 O         143.8344  138.9962  159.6872 O.2     1  UNL1       -0.2681
     25 H         140.7209  137.7159  160.5910 H       1  UNL1        0.1566
     26 C         142.2106  137.5644  158.2507 C.ar    1  UNL1        0.1350
     27 C         140.9645  137.9304  157.5003 C.ar    1  UNL1        0.0269
     28 C         140.6363  137.2404  156.2095 C.ar    1  UNL1        0.0404
     29 C         141.5544  136.1844  155.6690 C.ar    1  UNL1        0.1634
     30 C         142.8006  135.8184  156.4194 C.ar    1  UNL1        0.1359
     31 N         143.1287  136.5085  157.7103 N.ar    1  UNL1       -0.2361
     32 O         141.2263  135.4944  154.3782 O.3     1  UNL1       -0.4220
     33 C         141.4424  134.0163  154.2418 C.3     1  UNL1        0.5087
     34 F         142.1064  133.4655  153.0148 F       1  UNL1       -0.1550
     35 F         140.9945  133.0891  155.3325 F       1  UNL1       -0.1550
@<TRIPOS>BOND
     1     9     8    1
     2     9    10    1
     3    11    10    1
     4    11    12    1
     5    12    13    1
     6    13    14    1
     7    14    15    1
     8    14    16    2
     9    16    17    1
    10    17     1    1
    11     1     2   ar
    12     2     3   ar
    13     3    22    1
    14    22    23   am
    15    23    24    2
    16    23    26    1
    17    26    27   ar
    18    27    28   ar
    19    28    29   ar
    20    29    32    1
    21    32    33    1
    22    33    34    1
    23    33    35    1
    24    29    30   ar
    25    30    31   ar
    26     3     4   ar
    27     4     5   ar
    28     5     6   ar
    29     6     7    1
    30    17    18    1
    31    18    19    1
    32    19     9    1
    33    17    11    1
    34     6     1   ar
    35    31    26   ar
    36    15    20    1
    37    15    21    1
    38    22    25    1
@<TRIPOS>MOLECULE
*****
 35 38 0 0 0
SMALL
GASTEIGER

@<TRIPOS>ATOM
      1 C         141.6617  139.8537  164.2469 C.ar    1  UNL1        0.1102
      2 N         142.5725  140.3042  163.1435 N.ar    1  UNL1       -0.2306
      3 C         142.8425  139.3999  161.9776 C.ar    1  UNL1        0.1342
      4 C         142.2017  138.0451  161.9151 C.ar    1  UNL1        0.0368
      5 C         141.2910  137.5945  163.0185 C.ar    1  UNL1        0.0338
      6 C         141.0209  138.4989  164.1844 C.ar    1  UNL1        0.1556
      7 F         140.1101  138.0483  165.2878 F       1  UNL1       -0.2029
      8 C         138.7489  144.3637  164.8988 C.3     1  UNL1        0.0320
      9 C         139.6298  143.1618  165.0701 C.3     1  UNL1        0.1155
     10 C         140.2408  142.8642  166.4073 C.3     1  UNL1        0.0328
     11 C         141.1217  141.6623  166.5787 C.3     1  UNL1        0.0422
     12 C         141.7326  141.3647  167.9160 C.3     1  UNL1        0.0673
     13 S         142.6135  140.1627  168.0873 S.3     1  UNL1       -0.0807
     14 C         142.8835  139.2584  166.9213 C.2     1  UNL1        0.1483
     15 N         143.7644  138.0565  167.0927 N.pl3   1  UNL1       -0.3380
     16 N         142.2726  139.5560  165.5841 N.2     1  UNL1       -0.2468
     17 C         141.3917  140.7580  165.4128 C.3     1  UNL1        0.1513
     18 C         140.7808  141.0556  164.0756 C.3     1  UNL1        0.1701
     19 O         139.8998  142.2575  163.9043 O.3     1  UNL1       -0.3538
     20 H         144.1654  137.8612  167.9703 H       1  UNL1        0.1442
     21 H         143.9416  137.4630  166.3274 H       1  UNL1        0.1442
     22 N         143.7533  139.8504  160.8741 N.am    1  UNL1       -0.2646
     23 C         143.1791  140.2881  159.5594 C.2     1  UNL1        0.2683
     24 O         141.6941  140.2754  159.3480 O.2     1  UNL1       -0.2681
     25 H         144.7280  139.8587  161.0129 H       1  UNL1        0.1566
     26 C         144.0898  140.7386  158.4559 C.ar    1  UNL1        0.1350
     27 C         144.7799  142.0672  158.5484 C.ar    1  UNL1        0.0269
     28 C         145.6907  142.5177  157.4450 C.ar    1  UNL1        0.0404
     29 C         145.9113  141.6395  156.2490 C.ar    1  UNL1        0.1634
     30 C         145.2212  140.3109  156.1566 C.ar    1  UNL1        0.1359
     31 N         144.3105  139.8604  157.2601 N.ar    1  UNL1       -0.2361
     32 O         146.8221  142.0900  155.1456 O.3     1  UNL1       -0.4220
     33 C         148.3043  141.8968  155.2706 C.3     1  UNL1        0.5087
     34 F         148.9905  142.1813  156.5737 F       1  UNL1       -0.1550
     35 F         149.1004  141.4191  154.0924 F       1  UNL1       -0.1550
@<TRIPOS>BOND
     1     9     8    1
     2     9    10    1
     3    11    10    1
     4    11    12    1
     5    12    13    1
     6    13    14    1
     7    14    15    1
     8    14    16    2
     9    16    17    1
    10    17     1    1
    11     1     2   ar
    12     2     3   ar
    13     3    22    1
    14    22    23   am
    15    23    24    2
    16    23    26    1
    17    26    27   ar
    18    27    28   ar
    19    28    29   ar
    20    29    32    1
    21    32    33    1
    22    33    34    1
    23    33    35    1
    24    29    30   ar
    25    30    31   ar
    26     3     4   ar
    27     4     5   ar
    28     5     6   ar
    29     6     7    1
    30    17    18    1
    31    18    19    1
    32    19     9    1
    33    17    11    1
    34     6     1   ar
    35    31    26   ar
    36    15    20    1
    37    15    21    1
    38    22    25    1
@<TRIPOS>MOLECULE
*****
 35 38 0 0 0
SMALL
GASTEIGER

@<TRIPOS>ATOM
      1 C         142.8913  142.0708  164.3023 C.ar    1  UNL1        0.1102
      2 N         142.7977  141.1814  163.0980 N.ar    1  UNL1       -0.2306
      3 C         144.0377  140.8160  162.3372 C.ar    1  UNL1        0.1342
      4 C         145.3714  141.3400  162.7807 C.ar    1  UNL1        0.0368
      5 C         145.4651  142.2294  163.9849 C.ar    1  UNL1        0.0338
      6 C         144.2250  142.5948  164.7458 C.ar    1  UNL1        0.1556
      7 F         144.3187  143.4841  165.9500 F       1  UNL1       -0.2029
      8 C         140.4277  140.0274  168.6618 C.3     1  UNL1        0.0320
      9 C         140.8356  140.8303  167.4622 C.3     1  UNL1        0.1155
     10 C         140.0034  141.9986  167.0234 C.3     1  UNL1        0.0328
     11 C         140.4112  142.8015  165.8238 C.3     1  UNL1        0.0422
     12 C         139.5790  143.9698  165.3850 C.3     1  UNL1        0.0673
     13 S         139.9868  144.7727  164.1854 S.3     1  UNL1       -0.0807
     14 C         141.2269  144.4073  163.4246 C.2     1  UNL1        0.1483
     15 N         141.6348  145.2102  162.2250 N.pl3   1  UNL1       -0.3380
     16 N         142.0591  143.2390  163.8634 N.2     1  UNL1       -0.2468
     17 C         141.6513  142.4361  165.0630 C.3     1  UNL1        0.1513
     18 C         142.4835  141.2679  165.5019 C.3     1  UNL1        0.1701
     19 O         142.0756  140.4650  166.7014 O.3     1  UNL1       -0.3538
     20 H         141.0886  145.9770  161.9370 H       1  UNL1        0.1442
     21 H         142.4487  144.9704  161.7257 H       1  UNL1        0.1442
     22 N         143.9441  139.9266  161.1329 N.am    1  UNL1       -0.2646
     23 C         143.4915  140.4895  159.8182 C.2     1  UNL1        0.2683
     24 O         143.1325  141.9418  159.7079 O.2     1  UNL1       -0.2681
     25 H         144.1797  138.9735  161.2054 H       1  UNL1        0.1566
     26 C         143.3979  139.6002  158.6140 C.ar    1  UNL1        0.1350
     27 C         142.6211  138.3191  158.6863 C.ar    1  UNL1        0.0269
     28 C         142.5274  137.4298  157.4820 C.ar    1  UNL1        0.0404
     29 C         143.2107  137.8216  156.2053 C.ar    1  UNL1        0.1634
     30 C         143.9875  139.1027  156.1331 C.ar    1  UNL1        0.1359
     31 N         144.0811  139.9920  157.3374 N.ar    1  UNL1       -0.2361
     32 O         143.1170  136.9323  155.0011 O.3     1  UNL1       -0.4220
     33 C         143.4366  135.4716  155.1207 C.3     1  UNL1        0.5087
     34 F         144.2323  134.9712  156.2896 F       1  UNL1       -0.1550
     35 F         142.9605  134.5113  154.0714 F       1  UNL1       -0.1550
@<TRIPOS>BOND
     1     9     8    1
     2     9    10    1
     3    11    10    1
     4    11    12    1
     5    12    13    1
     6    13    14    1
     7    14    15    1
     8    14    16    2
     9    16    17    1
    10    17     1    1
    11     1     2   ar
    12     2     3   ar
    13     3    22    1
    14    22    23   am
    15    23    24    2
    16    23    26    1
    17    26    27   ar
    18    27    28   ar
    19    28    29   ar
    20    29    32    1
    21    32    33    1
    22    33    34    1
    23    33    35    1
    24    29    30   ar
    25    30    31   ar
    26     3     4   ar
    27     4     5   ar
    28     5     6   ar
    29     6     7    1
    30    17    18    1
    31    18    19    1
    32    19     9    1
    33    17    11    1
    34     6     1   ar
    35    31    26   ar
    36    15    20    1
    37    15    21    1
    38    22    25    1
@<TRIPOS>MOLECULE
*****
 35 38 0 0 0
SMALL
GASTEIGER

@<TRIPOS>ATOM
      1 C         140.5243  142.7109  164.3716 C.ar    1  UNL1        0.1102
      2 N         141.5522  142.4630  163.3076 N.ar    1  UNL1       -0.2306
      3 C         141.6959  143.4241  162.1650 C.ar    1  UNL1        0.1342
      4 C         140.8116  144.6332  162.0863 C.ar    1  UNL1        0.0368
      5 C         139.7837  144.8812  163.1502 C.ar    1  UNL1        0.0338
      6 C         139.6400  143.9200  164.2929 C.ar    1  UNL1        0.1556
      7 F         138.6122  144.1680  165.3568 F       1  UNL1       -0.2029
      8 C         143.2676  141.9063  168.9625 C.3     1  UNL1        0.0320
      9 C         142.3053  141.8541  167.8130 C.3     1  UNL1        0.1155
     10 C         141.1994  140.8408  167.8062 C.3     1  UNL1        0.0328
     11 C         140.2371  140.7887  166.6567 C.3     1  UNL1        0.0422
     12 C         139.1311  139.7753  166.6499 C.3     1  UNL1        0.0673
     13 S         138.1688  139.7232  165.5005 S.3     1  UNL1       -0.0807
     14 C         138.3124  140.6844  164.3578 C.2     1  UNL1        0.1483
     15 N         137.3501  140.6322  163.2084 N.pl3   1  UNL1       -0.3380
     16 N         139.4184  141.6976  164.3647 N.2     1  UNL1       -0.2468
     17 C         140.3807  141.7498  165.5141 C.3     1  UNL1        0.1513
     18 C         141.4866  142.7631  165.5210 C.3     1  UNL1        0.1701
     19 O         142.4489  142.8152  166.6704 O.3     1  UNL1       -0.3538
     20 H         136.6242  139.9671  163.2039 H       1  UNL1        0.1442
     21 H         137.4444  141.2631  162.4585 H       1  UNL1        0.1442
     22 N         142.7238  143.1762  161.1010 N.am    1  UNL1       -0.2646
     23 C         142.4666  142.1546  160.0332 C.2     1  UNL1        0.2683
     24 O         141.1814  141.3809  160.0294 O.2     1  UNL1       -0.2681
     25 H         143.5672  143.6840  161.1035 H       1  UNL1        0.1566
     26 C         143.4944  141.9067  158.9693 C.ar    1  UNL1        0.1350
     27 C         144.7263  142.7599  158.9031 C.ar    1  UNL1        0.0269
     28 C         145.7542  142.5120  157.8392 C.ar    1  UNL1        0.0404
     29 C         145.5501  141.4107  156.8413 C.ar    1  UNL1        0.1634
     30 C         144.3182  140.5575  156.9075 C.ar    1  UNL1        0.1359
     31 N         143.2904  140.8055  157.9715 N.ar    1  UNL1       -0.2361
     32 O         146.5780  141.1628  155.7774 O.3     1  UNL1       -0.4220
     33 C         147.7144  142.1244  155.5938 C.3     1  UNL1        0.5087
     34 F         147.4744  143.4531  154.9404 F       1  UNL1       -0.1550
     35 F         149.0908  141.7574  156.0635 F       1  UNL1       -0.1550
@<TRIPOS>BOND
     1     9     8    1
     2     9    10    1
     3    11    10    1
     4    11    12    1
     5    12    13    1
     6    13    14    1
     7    14    15    1
     8    14    16    2
     9    16    17    1
    10    17     1    1
    11     1     2   ar
    12     2     3   ar
    13     3    22    1
    14    22    23   am
    15    23    24    2
    16    23    26    1
    17    26    27   ar
    18    27    28   ar
    19    28    29   ar
    20    29    32    1
    21    32    33    1
    22    33    34    1
    23    33    35    1
    24    29    30   ar
    25    30    31   ar
    26     3     4   ar
    27     4     5   ar
    28     5     6   ar
    29     6     7    1
    30    17    18    1
    31    18    19    1
    32    19     9    1
    33    17    11    1
    34     6     1   ar
    35    31    26   ar
    36    15    20    1
    37    15    21    1
    38    22    25    1
@<TRIPOS>MOLECULE
*****
 35 38 0 0 0
SMALL
GASTEIGER

@<TRIPOS>ATOM
      1 C         140.2753  141.2655  162.8120 C.ar    1  UNL1        0.1102
      2 N         140.5750  140.4342  161.5999 N.ar    1  UNL1       -0.2306
      3 C         139.7419  139.2246  161.2953 C.ar    1  UNL1        0.1342
      4 C         138.6090  138.8463  162.2028 C.ar    1  UNL1        0.0368
      5 C         138.3093  139.6775  163.4149 C.ar    1  UNL1        0.0338
      6 C         139.1425  140.8872  163.7195 C.ar    1  UNL1        0.1556
      7 F         138.8427  141.7184  164.9315 F       1  UNL1       -0.2029
      8 C         145.4590  142.0046  164.1659 C.3     1  UNL1        0.0320
      9 C         144.0088  142.1614  163.8161 C.3     1  UNL1        0.1155
     10 C         143.3917  143.5278  163.7709 C.3     1  UNL1        0.0328
     11 C         141.9415  143.6847  163.4211 C.3     1  UNL1        0.0422
     12 C         141.3245  145.0512  163.3759 C.3     1  UNL1        0.0673
     13 S         139.8743  145.2080  163.0261 S.3     1  UNL1       -0.0807
     14 C         139.0411  143.9983  162.7215 C.2     1  UNL1        0.1483
     15 N         137.5909  144.1552  162.3717 N.pl3   1  UNL1       -0.3380
     16 N         139.6582  142.6319  162.7668 N.2     1  UNL1       -0.2468
     17 C         141.1084  142.4751  163.1165 C.3     1  UNL1        0.1513
     18 C         141.7255  141.1087  163.1618 C.3     1  UNL1        0.1701
     19 O         143.1757  140.9518  163.5115 O.3     1  UNL1       -0.3538
     20 H         137.1859  145.0520  162.3421 H       1  UNL1        0.1442
     21 H         137.0441  143.3613  162.1719 H       1  UNL1        0.1442
     22 N         140.0416  138.3933  160.0832 N.am    1  UNL1       -0.2646
     23 C         139.6455  138.8825  158.7216 C.2     1  UNL1        0.2683
     24 O         138.9496  140.2029  158.5722 O.2     1  UNL1       -0.2681
     25 H         140.4982  137.5267  160.1813 H       1  UNL1        0.1566
     26 C         139.9451  138.0512  157.5095 C.ar    1  UNL1        0.1350
     27 C         141.3092  137.4543  157.3280 C.ar    1  UNL1        0.0269
     28 C         141.6089  136.6231  156.1159 C.ar    1  UNL1        0.0404
     29 C         140.5444  136.3887  155.0853 C.ar    1  UNL1        0.1634
     30 C         139.1803  136.9856  155.2669 C.ar    1  UNL1        0.1359
     31 N         138.8807  137.8169  156.4790 N.ar    1  UNL1       -0.2361
     32 O         140.8441  135.5574  153.8732 O.3     1  UNL1       -0.4220
     33 C         141.4051  134.1753  154.0316 C.3     1  UNL1        0.5087
     34 F         141.1070  133.3822  155.2693 F       1  UNL1       -0.1550
     35 F         142.2641  133.5864  152.9522 F       1  UNL1       -0.1550
@<TRIPOS>BOND
     1     9     8    1
     2     9    10    1
     3    11    10    1
     4    11    12    1
     5    12    13    1
     6    13    14    1
     7    14    15    1
     8    14    16    2
     9    16    17    1
    10    17     1    1
    11     1     2   ar
    12     2     3   ar
    13     3    22    1
    14    22    23   am
    15    23    24    2
    16    23    26    1
    17    26    27   ar
    18    27    28   ar
    19    28    29   ar
    20    29    32    1
    21    32    33    1
    22    33    34    1
    23    33    35    1
    24    29    30   ar
    25    30    31   ar
    26     3     4   ar
    27     4     5   ar
    28     5     6   ar
    29     6     7    1
    30    17    18    1
    31    18    19    1
    32    19     9    1
    33    17    11    1
    34     6     1   ar
    35    31    26   ar
    36    15    20    1
    37    15    21    1
    38    22    25    1
