@<TRIPOS>MOLECULE
*****
 33 36 0 0 0
SMALL
GASTEIGER

@<TRIPOS>ATOM
      1 N         139.2586  137.6323  163.1331 N.3     1  UNL1       -0.2935
      2 H         138.9579  136.7277  162.7703 H       1  UNL1        0.1236
      3 C         139.2359  137.5281  164.6293 C.3     1  UNL1        0.0956
      4 C         141.0712  140.7812  167.1392 C.ar    1  UNL1        0.0001
      5 C         139.5794  140.6497  167.0558 C.ar    1  UNL1       -0.0003
      6 C         138.9675  139.5653  166.2192 C.ar    1  UNL1       -0.0029
      7 C         139.8476  138.6125  165.4659 C.ar    1  UNL1       -0.0064
      8 C         141.3396  138.7440  165.5492 C.ar    1  UNL1       -0.0029
      9 C         141.9514  139.8283  166.3859 C.ar    1  UNL1       -0.0003
     10 C         141.0048  142.3126  169.2368 C.2     1  UNL1        0.0598
     11 C         141.6830  141.8655  167.9758 C.2     1  UNL1        0.0047
     12 O         140.8411  144.6478  170.3638 O.2     1  UNL1       -0.2681
     13 C         141.6165  143.3970  170.0735 C.2     1  UNL1        0.2679
     14 N         143.0035  143.2306  170.6198 N.am    1  UNL1       -0.1934
     15 O         143.6151  144.3150  171.4565 O.3     1  UNL1       -0.2949
     16 H         143.5124  142.4097  170.4292 H       1  UNL1        0.1825
     17 H         142.9857  145.0476  171.5467 H       1  UNL1        0.2414
     18 C         138.4298  138.6736  162.4412 C.3     1  UNL1        0.0736
     19 C         139.0971  139.8224  161.7447 C.3     1  UNL1        0.0450
     20 C         139.9449  140.7825  162.5253 C.2     1  UNL1       -0.0015
     21 C         141.4443  140.8062  162.5620 C.2     1  UNL1        0.0829
     22 N         141.8682  141.9258  163.4657 N.2     1  UNL1       -0.2492
     23 C         140.6308  142.5941  163.9876 C.2     1  UNL1        0.0630
     24 C         140.4329  143.7548  164.9169 C.3     1  UNL1        0.0717
     25 C         139.0464  144.2088  165.2650 C.2     1  UNL1       -0.0198
     26 C         137.8577  143.5022  164.6838 C.2     1  UNL1       -0.0042
     27 C         138.0556  142.3416  163.7545 C.2     1  UNL1        0.0006
     28 C         139.4422  141.8875  163.4064 C.2     1  UNL1        0.0114
     29 C         142.3591  139.8739  161.8245 C.ar    1  UNL1        0.0468
     30 C         142.9970  138.6376  162.3853 C.ar    1  UNL1        0.0085
     31 C         143.8288  138.0138  161.3040 C.ar    1  UNL1        0.0075
     32 C         143.7050  138.8647  160.0749 C.ar    1  UNL1        0.0355
     33 S         142.7967  140.0143  160.3966 S.2     1  UNL1       -0.0849
@<TRIPOS>BOND
     1    12    13    2
     2    13    10    1
     3    10    11    2
     4    11     4    1
     5     4     5   ar
     6     5     6   ar
     7     6     7   ar
     8     7     3    1
     9     3     1    1
    10     1    18    1
    11    18    19    1
    12    19    20    1
    13    20    21    2
    14    21    29    1
    15    29    30   ar
    16    30    31   ar
    17    31    32   ar
    18    32    33   ar
    19    21    22    1
    20    22    23    2
    21    23    24    1
    22    24    25    1
    23    25    26    2
    24    26    27    1
    25    27    28    2
    26     7     8   ar
    27     8     9   ar
    28    13    14   am
    29    14    15    1
    30     9     4   ar
    31    28    20    1
    32    33    29   ar
    33    28    23    1
    34     1     2    1
    35    14    16    1
    36    15    17    1
@<TRIPOS>MOLECULE
*****
 33 36 0 0 0
SMALL
GASTEIGER

@<TRIPOS>ATOM
      1 N         137.3540  140.9764  162.3167 N.3     1  UNL1       -0.2935
      2 H         136.4049  141.0960  161.9629 H       1  UNL1        0.1236
      3 C         137.4947  141.8914  163.4969 C.3     1  UNL1        0.0956
      4 C         139.8303  140.5640  167.1071 C.ar    1  UNL1        0.0001
      5 C         138.8816  139.6149  166.4370 C.ar    1  UNL1       -0.0003
      6 C         138.1031  140.0573  165.2335 C.ar    1  UNL1       -0.0029
      7 C         138.2732  141.4489  164.7003 C.ar    1  UNL1       -0.0064
      8 C         139.2219  142.3981  165.3705 C.ar    1  UNL1       -0.0029
      9 C         140.0004  141.9557  166.5739 C.ar    1  UNL1       -0.0003
     10 C         141.2113  141.1415  169.2305 C.2     1  UNL1        0.0598
     11 C         140.6088  140.1215  168.3105 C.2     1  UNL1        0.0047
     12 O         141.4907  141.0234  171.8108 O.2     1  UNL1       -0.2681
     13 C         141.9898  140.6991  170.4340 C.2     1  UNL1        0.2679
     14 N         143.2674  139.9325  170.2606 N.am    1  UNL1       -0.1934
     15 O         144.0458  139.4902  171.4641 O.3     1  UNL1       -0.2949
     16 H         143.5950  139.7197  169.3570 H       1  UNL1        0.1825
     17 H         143.5882  139.7788  172.2692 H       1  UNL1        0.2414
     18 C         138.2756  141.1205  161.1420 C.3     1  UNL1        0.0736
     19 C         139.5904  140.3987  161.1271 C.3     1  UNL1        0.0450
     20 C         140.6234  140.7003  162.1721 C.2     1  UNL1       -0.0015
     21 C         141.3169  142.0151  162.3727 C.2     1  UNL1        0.0829
     22 N         142.2664  141.8674  163.5245 N.2     1  UNL1       -0.2492
     23 C         142.1597  140.4613  164.0358 C.2     1  UNL1        0.0630
     24 C         142.8559  139.7445  165.1545 C.3     1  UNL1        0.0717
     25 C         142.5367  138.3065  165.4374 C.2     1  UNL1       -0.0198
     26 C         141.5213  137.5851  164.6015 C.2     1  UNL1       -0.0042
     27 C         140.8251  138.3019  163.4828 C.2     1  UNL1        0.0006
     28 C         141.1443  139.7399  163.2000 C.2     1  UNL1        0.0114
     29 C         141.0992  143.2592  161.5635 C.ar    1  UNL1        0.0468
     30 C         141.5330  143.4748  160.1439 C.ar    1  UNL1        0.0085
     31 C         141.1114  144.8550  159.7348 C.ar    1  UNL1        0.0075
     32 C         140.4170  145.4924  160.9017 C.ar    1  UNL1        0.0355
     33 S         140.4095  144.5062  162.0318 S.2     1  UNL1       -0.0849
@<TRIPOS>BOND
     1    12    13    2
     2    13    10    1
     3    10    11    2
     4    11     4    1
     5     4     5   ar
     6     5     6   ar
     7     6     7   ar
     8     7     3    1
     9     3     1    1
    10     1    18    1
    11    18    19    1
    12    19    20    1
    13    20    21    2
    14    21    29    1
    15    29    30   ar
    16    30    31   ar
    17    31    32   ar
    18    32    33   ar
    19    21    22    1
    20    22    23    2
    21    23    24    1
    22    24    25    1
    23    25    26    2
    24    26    27    1
    25    27    28    2
    26     7     8   ar
    27     8     9   ar
    28    13    14   am
    29    14    15    1
    30     9     4   ar
    31    28    20    1
    32    33    29   ar
    33    28    23    1
    34     1     2    1
    35    14    16    1
    36    15    17    1
@<TRIPOS>MOLECULE
*****
 33 36 0 0 0
SMALL
GASTEIGER

@<TRIPOS>ATOM
      1 N         139.7066  139.4854  160.8724 N.3     1  UNL1       -0.2935
      2 H         139.3335  140.4308  160.7864 H       1  UNL1        0.1236
      3 C         138.7043  138.6941  161.6593 C.3     1  UNL1        0.0956
      4 C         138.5016  139.1352  166.1331 C.ar    1  UNL1        0.0001
      5 C         138.0963  140.2762  165.2478 C.ar    1  UNL1       -0.0003
      6 C         138.1639  140.1293  163.7565 C.ar    1  UNL1       -0.0029
      7 C         138.6367  138.8412  163.1505 C.ar    1  UNL1       -0.0064
      8 C         139.0420  137.7000  164.0358 C.ar    1  UNL1       -0.0029
      9 C         138.9744  137.8471  165.5271 C.ar    1  UNL1       -0.0003
     10 C         139.5165  140.0199  168.3549 C.2     1  UNL1        0.0598
     11 C         138.4340  139.2822  167.6243 C.2     1  UNL1        0.0047
     12 O         138.1505  139.9452  170.5636 O.2     1  UNL1       -0.2681
     13 C         139.4490  140.1670  169.8462 C.2     1  UNL1        0.2679
     14 N         140.6799  140.5358  170.6200 N.am    1  UNL1       -0.1934
     15 O         140.6123  140.6829  172.1113 O.3     1  UNL1       -0.2949
     16 H         141.5322  140.6813  170.1492 H       1  UNL1        0.1825
     17 H         139.7074  140.5067  172.4129 H       1  UNL1        0.2414
     18 C         141.1148  139.6193  161.3713 C.3     1  UNL1        0.0736
     19 C         141.6109  140.9441  161.8704 C.3     1  UNL1        0.0450
     20 C         141.6390  141.2279  163.3430 C.2     1  UNL1       -0.0015
     21 C         141.1742  142.4903  164.0067 C.2     1  UNL1        0.0829
     22 N         141.3848  142.3417  165.4843 N.2     1  UNL1       -0.2492
     23 C         141.9799  140.9876  165.7340 C.2     1  UNL1        0.0630
     24 C         142.3989  140.2925  166.9954 C.3     1  UNL1        0.0717
     25 C         142.9751  138.9090  166.9334 C.2     1  UNL1       -0.0198
     26 C         143.1322  138.2206  165.6100 C.2     1  UNL1       -0.0042
     27 C         142.7132  138.9157  164.3486 C.2     1  UNL1        0.0006
     28 C         142.1370  140.2992  164.4106 C.2     1  UNL1        0.0114
     29 C         140.5996  143.6904  163.3142 C.ar    1  UNL1        0.0468
     30 C         141.3455  144.9401  162.9512 C.ar    1  UNL1        0.0085
     31 C         140.3851  145.8736  162.2758 C.ar    1  UNL1        0.0075
     32 C         139.0455  145.2008  162.2213 C.ar    1  UNL1        0.0355
     33 S         139.1781  143.8515  162.8630 S.2     1  UNL1       -0.0849
@<TRIPOS>BOND
     1    12    13    2
     2    13    10    1
     3    10    11    2
     4    11     4    1
     5     4     5   ar
     6     5     6   ar
     7     6     7   ar
     8     7     3    1
     9     3     1    1
    10     1    18    1
    11    18    19    1
    12    19    20    1
    13    20    21    2
    14    21    29    1
    15    29    30   ar
    16    30    31   ar
    17    31    32   ar
    18    32    33   ar
    19    21    22    1
    20    22    23    2
    21    23    24    1
    22    24    25    1
    23    25    26    2
    24    26    27    1
    25    27    28    2
    26     7     8   ar
    27     8     9   ar
    28    13    14   am
    29    14    15    1
    30     9     4   ar
    31    28    20    1
    32    33    29   ar
    33    28    23    1
    34     1     2    1
    35    14    16    1
    36    15    17    1
@<TRIPOS>MOLECULE
*****
 33 36 0 0 0
SMALL
GASTEIGER

@<TRIPOS>ATOM
      1 N         137.9023  143.4086  162.2434 N.3     1  UNL1       -0.2935
      2 H         137.1983  143.9732  161.7680 H       1  UNL1        0.1236
      3 C         137.4865  143.3191  163.6818 C.3     1  UNL1        0.0956
      4 C         140.3933  141.8250  166.7752 C.ar    1  UNL1        0.0001
      5 C         140.3739  143.2783  166.4043 C.ar    1  UNL1       -0.0003
      6 C         139.4050  143.7764  165.3731 C.ar    1  UNL1       -0.0029
      7 C         138.4555  142.8211  164.7129 C.ar    1  UNL1       -0.0064
      8 C         138.4748  141.3677  165.0838 C.ar    1  UNL1       -0.0029
      9 C         139.4437  140.8697  166.1150 C.ar    1  UNL1       -0.0003
     10 C         142.3291  142.2775  168.4477 C.2     1  UNL1        0.0598
     11 C         141.3622  141.3269  167.8063 C.2     1  UNL1        0.0047
     12 O         144.4477  142.6429  169.9064 O.2     1  UNL1       -0.2681
     13 C         143.2981  141.7795  169.4789 C.2     1  UNL1        0.2679
     14 N         143.1174  140.4183  170.0824 N.am    1  UNL1       -0.1934
     15 O         144.0864  139.9204  171.1136 O.3     1  UNL1       -0.2949
     16 H         142.3628  139.8516  169.8018 H       1  UNL1        0.1825
     17 H         144.7635  140.5962  171.2739 H       1  UNL1        0.2414
     18 C         139.2380  143.9889  161.8836 C.3     1  UNL1        0.0736
     19 C         140.3357  143.0941  161.3890 C.3     1  UNL1        0.0450
     20 C         141.1701  142.3202  162.3663 C.2     1  UNL1       -0.0015
     21 C         141.0875  140.8443  162.6212 C.2     1  UNL1        0.0829
     22 N         142.0998  140.4983  163.6726 N.2     1  UNL1       -0.2492
     23 C         142.8080  141.7603  164.0675 C.2     1  UNL1        0.0630
     24 C         143.9019  142.0296  165.0579 C.3     1  UNL1        0.0717
     25 C         144.4211  143.4249  165.2408 C.2     1  UNL1       -0.0198
     26 C         143.8464  144.5509  164.4334 C.2     1  UNL1       -0.0042
     27 C         142.7526  144.2816  163.4430 C.2     1  UNL1        0.0006
     28 C         142.2334  142.8863  163.2601 C.2     1  UNL1        0.0114
     29 C         140.1562  139.8833  161.9438 C.ar    1  UNL1        0.0468
     30 C         138.6575  139.9405  161.9706 C.ar    1  UNL1        0.0085
     31 C         138.1351  138.7888  161.1639 C.ar    1  UNL1        0.0075
     32 C         139.3109  138.0197  160.6386 C.ar    1  UNL1        0.0355
     33 S         140.5600  138.6961  161.1205 S.2     1  UNL1       -0.0849
@<TRIPOS>BOND
     1    12    13    2
     2    13    10    1
     3    10    11    2
     4    11     4    1
     5     4     5   ar
     6     5     6   ar
     7     6     7   ar
     8     7     3    1
     9     3     1    1
    10     1    18    1
    11    18    19    1
    12    19    20    1
    13    20    21    2
    14    21    29    1
    15    29    30   ar
    16    30    31   ar
    17    31    32   ar
    18    32    33   ar
    19    21    22    1
    20    22    23    2
    21    23    24    1
    22    24    25    1
    23    25    26    2
    24    26    27    1
    25    27    28    2
    26     7     8   ar
    27     8     9   ar
    28    13    14   am
    29    14    15    1
    30     9     4   ar
    31    28    20    1
    32    33    29   ar
    33    28    23    1
    34     1     2    1
    35    14    16    1
    36    15    17    1
@<TRIPOS>MOLECULE
*****
 33 36 0 0 0
SMALL
GASTEIGER

@<TRIPOS>ATOM
      1 N         143.5374  143.8800  161.9416 N.3     1  UNL1       -0.2935
      2 H         143.8445  144.6310  161.3235 H       1  UNL1        0.1236
      3 C         143.7782  144.3491  163.3458 C.3     1  UNL1        0.0956
      4 C         141.7708  142.2621  166.7905 C.ar    1  UNL1        0.0001
      5 C         140.9433  142.8752  165.6998 C.ar    1  UNL1       -0.0003
      6 C         141.6124  143.5709  164.5516 C.ar    1  UNL1       -0.0029
      7 C         143.1090  143.6535  164.4940 C.ar    1  UNL1       -0.0064
      8 C         143.9365  143.0404  165.5847 C.ar    1  UNL1       -0.0029
      9 C         143.2674  142.3447  166.7329 C.ar    1  UNL1       -0.0003
     10 C         141.4245  141.9653  169.3481 C.2     1  UNL1        0.0598
     11 C         141.1016  141.5665  167.9386 C.2     1  UNL1        0.0047
     12 O         140.5902  141.9775  171.8085 O.2     1  UNL1       -0.2681
     13 C         140.7554  141.2697  170.4964 C.2     1  UNL1        0.2679
     14 N         140.2516  139.8664  170.3326 N.am    1  UNL1       -0.1934
     15 O         139.5825  139.1708  171.4809 O.3     1  UNL1       -0.2949
     16 H         140.3601  139.4018  169.4714 H       1  UNL1        0.1825
     17 H         139.5575  139.7640  172.2479 H       1  UNL1        0.2414
     18 C         144.1878  142.6210  161.4496 C.3     1  UNL1        0.0736
     19 C         143.3490  141.4199  161.1273 C.3     1  UNL1        0.0450
     20 C         142.5239  140.7717  162.1993 C.2     1  UNL1       -0.0015
     21 C         141.0261  140.7013  162.2376 C.2     1  UNL1        0.0829
     22 N         140.6284  139.9662  163.4832 N.2     1  UNL1       -0.2492
     23 C         141.8805  139.5823  164.2146 C.2     1  UNL1        0.0630
     24 C         142.1051  138.8437  165.5006 C.3     1  UNL1        0.0717
     25 C         143.5013  138.6029  165.9932 C.2     1  UNL1       -0.0198
     26 C         144.6729  139.1008  165.1996 C.2     1  UNL1       -0.0042
     27 C         144.4482  139.8394  163.9136 C.2     1  UNL1        0.0006
     28 C         143.0520  140.0801  163.4211 C.2     1  UNL1        0.0114
     29 C         140.0903  141.2668  161.2107 C.ar    1  UNL1        0.0468
     30 C         139.8021  140.6784  159.8614 C.ar    1  UNL1        0.0085
     31 C         138.8120  141.5679  159.1696 C.ar    1  UNL1        0.0075
     32 C         138.4882  142.7060  160.0914 C.ar    1  UNL1        0.0355
     33 S         139.2782  142.5199  161.3529 S.2     1  UNL1       -0.0849
@<TRIPOS>BOND
     1    12    13    2
     2    13    10    1
     3    10    11    2
     4    11     4    1
     5     4     5   ar
     6     5     6   ar
     7     6     7   ar
     8     7     3    1
     9     3     1    1
    10     1    18    1
    11    18    19    1
    12    19    20    1
    13    20    21    2
    14    21    29    1
    15    29    30   ar
    16    30    31   ar
    17    31    32   ar
    18    32    33   ar
    19    21    22    1
    20    22    23    2
    21    23    24    1
    22    24    25    1
    23    25    26    2
    24    26    27    1
    25    27    28    2
    26     7     8   ar
    27     8     9   ar
    28    13    14   am
    29    14    15    1
    30     9     4   ar
    31    28    20    1
    32    33    29   ar
    33    28    23    1
    34     1     2    1
    35    14    16    1
    36    15    17    1
@<TRIPOS>MOLECULE
*****
 33 36 0 0 0
SMALL
GASTEIGER

@<TRIPOS>ATOM
      1 N         144.8216  143.3625  162.5074 N.3     1  UNL1       -0.2935
      2 H         145.6424  143.7764  162.0655 H       1  UNL1        0.1236
      3 C         145.2918  142.1360  163.2316 C.3     1  UNL1        0.0956
      4 C         142.8383  140.4306  166.5965 C.ar    1  UNL1        0.0001
      5 C         143.0323  141.9140  166.4867 C.ar    1  UNL1       -0.0003
      6 C         143.8501  142.4825  165.3650 C.ar    1  UNL1       -0.0029
      7 C         144.4739  141.5676  164.3532 C.ar    1  UNL1       -0.0064
      8 C         144.2799  140.0841  164.4630 C.ar    1  UNL1       -0.0029
      9 C         143.4621  139.5157  165.5847 C.ar    1  UNL1       -0.0003
     10 C         140.6985  140.4780  168.0692 C.2     1  UNL1        0.0598
     11 C         142.0204  139.8622  167.7181 C.2     1  UNL1        0.0047
     12 O         138.4177  139.6442  168.9925 O.2     1  UNL1       -0.2681
     13 C         139.8806  139.9097  169.1909 C.2     1  UNL1        0.2679
     14 N         140.5256  139.6068  170.5108 N.am    1  UNL1       -0.1934
     15 O         139.7076  139.0385  171.6324 O.3     1  UNL1       -0.2949
     16 H         141.4857  139.7811  170.6410 H       1  UNL1        0.1825
     17 H         138.7893  138.9291  171.3397 H       1  UNL1        0.2414
     18 C         143.7688  143.2488  161.4450 C.3     1  UNL1        0.0736
     19 C         142.3220  143.1537  161.8298 C.3     1  UNL1        0.0450
     20 C         141.7286  141.8250  162.1938 C.2     1  UNL1       -0.0015
     21 C         140.5518  141.6026  163.0970 C.2     1  UNL1        0.0829
     22 N         140.3037  140.1256  163.1798 N.2     1  UNL1       -0.2492
     23 C         141.3271  139.4351  162.3277 C.2     1  UNL1        0.0630
     24 C         141.5709  137.9858  162.0281 C.3     1  UNL1        0.0717
     25 C         142.6953  137.5867  161.1191 C.2     1  UNL1       -0.0198
     26 C         143.5759  138.6370  160.5097 C.2     1  UNL1       -0.0042
     27 C         143.3322  140.0863  160.8093 C.2     1  UNL1        0.0006
     28 C         142.2078  140.4854  161.7184 C.2     1  UNL1        0.0114
     29 C         139.7619  142.6698  163.7948 C.ar    1  UNL1        0.0468
     30 C         140.2214  143.4807  164.9702 C.ar    1  UNL1        0.0085
     31 C         139.1173  144.4256  165.3416 C.ar    1  UNL1        0.0075
     32 C         137.9753  144.1988  164.3959 C.ar    1  UNL1        0.0355
     33 S         138.3737  143.1137  163.4399 S.2     1  UNL1       -0.0849
@<TRIPOS>BOND
     1    12    13    2
     2    13    10    1
     3    10    11    2
     4    11     4    1
     5     4     5   ar
     6     5     6   ar
     7     6     7   ar
     8     7     3    1
     9     3     1    1
    10     1    18    1
    11    18    19    1
    12    19    20    1
    13    20    21    2
    14    21    29    1
    15    29    30   ar
    16    30    31   ar
    17    31    32   ar
    18    32    33   ar
    19    21    22    1
    20    22    23    2
    21    23    24    1
    22    24    25    1
    23    25    26    2
    24    26    27    1
    25    27    28    2
    26     7     8   ar
    27     8     9   ar
    28    13    14   am
    29    14    15    1
    30     9     4   ar
    31    28    20    1
    32    33    29   ar
    33    28    23    1
    34     1     2    1
    35    14    16    1
    36    15    17    1
@<TRIPOS>MOLECULE
*****
 33 36 0 0 0
SMALL
GASTEIGER

@<TRIPOS>ATOM
      1 N         138.5577  139.5011  160.5501 N.3     1  UNL1       -0.2935
      2 H         137.9675  140.2010  160.9998 H       1  UNL1        0.1236
      3 C         138.6809  138.3562  161.5113 C.3     1  UNL1        0.0956
      4 C         138.4909  139.1095  165.9438 C.ar    1  UNL1        0.0001
      5 C         137.9697  140.1387  164.9851 C.ar    1  UNL1       -0.0003
      6 C         138.0330  139.8876  163.5076 C.ar    1  UNL1       -0.0029
      7 C         138.6176  138.6073  162.9888 C.ar    1  UNL1       -0.0064
      8 C         139.1389  137.5781  163.9475 C.ar    1  UNL1       -0.0029
      9 C         139.0755  137.8292  165.4250 C.ar    1  UNL1       -0.0003
     10 C         139.5578  140.0652  168.1113 C.2     1  UNL1        0.0598
     11 C         138.4276  139.3606  167.4213 C.2     1  UNL1        0.0047
     12 O         138.2944  139.8762  170.3736 O.2     1  UNL1       -0.2681
     13 C         139.4945  140.3163  169.5888 C.2     1  UNL1        0.2679
     14 N         140.6313  141.0076  170.2815 N.am    1  UNL1       -0.1934
     15 O         140.5680  141.2587  171.7590 O.3     1  UNL1       -0.2949
     16 H         141.4190  141.2965  169.7664 H       1  UNL1        0.1825
     17 H         139.7317  140.9146  172.1099 H       1  UNL1        0.2414
     18 C         139.7876  140.2144  160.0719 C.3     1  UNL1        0.0736
     19 C         140.1127  141.5821  160.5954 C.3     1  UNL1        0.0450
     20 C         140.5133  141.7603  162.0299 C.2     1  UNL1       -0.0015
     21 C         141.6220  141.0342  162.7325 C.2     1  UNL1        0.0829
     22 N         141.6694  141.5211  164.1504 N.2     1  UNL1       -0.2492
     23 C         140.5900  142.5482  164.3242 C.2     1  UNL1        0.0630
     24 C         140.1655  143.3678  165.5065 C.3     1  UNL1        0.0717
     25 C         139.0265  144.3354  165.3782 C.2     1  UNL1       -0.0198
     26 C         138.3120  144.4832  164.0677 C.2     1  UNL1       -0.0042
     27 C         138.7365  143.6635  162.8854 C.2     1  UNL1        0.0006
     28 C         139.8755  142.6960  163.0137 C.2     1  UNL1        0.0114
     29 C         142.5247  140.0023  162.1239 C.ar    1  UNL1        0.0468
     30 C         143.5362  140.2432  161.0428 C.ar    1  UNL1        0.0085
     31 C         144.2111  138.9381  160.7403 C.ar    1  UNL1        0.0075
     32 C         143.6167  137.8907  161.6345 C.ar    1  UNL1        0.0355
     33 S         142.5744  138.5485  162.4896 S.2     1  UNL1       -0.0849
@<TRIPOS>BOND
     1    12    13    2
     2    13    10    1
     3    10    11    2
     4    11     4    1
     5     4     5   ar
     6     5     6   ar
     7     6     7   ar
     8     7     3    1
     9     3     1    1
    10     1    18    1
    11    18    19    1
    12    19    20    1
    13    20    21    2
    14    21    29    1
    15    29    30   ar
    16    30    31   ar
    17    31    32   ar
    18    32    33   ar
    19    21    22    1
    20    22    23    2
    21    23    24    1
    22    24    25    1
    23    25    26    2
    24    26    27    1
    25    27    28    2
    26     7     8   ar
    27     8     9   ar
    28    13    14   am
    29    14    15    1
    30     9     4   ar
    31    28    20    1
    32    33    29   ar
    33    28    23    1
    34     1     2    1
    35    14    16    1
    36    15    17    1
@<TRIPOS>MOLECULE
*****
 33 36 0 0 0
SMALL
GASTEIGER

@<TRIPOS>ATOM
      1 N         139.0654  143.9665  161.1728 N.3     1  UNL1       -0.2935
      2 H         139.9497  143.7846  160.6980 H       1  UNL1        0.1236
      3 C         139.3767  144.8496  162.3446 C.3     1  UNL1        0.0956
      4 C         140.6310  143.0281  166.2638 C.ar    1  UNL1        0.0001
      5 C         141.6372  143.2143  165.1671 C.ar    1  UNL1       -0.0003
      6 C         141.2192  143.8215  163.8607 C.ar    1  UNL1       -0.0029
      7 C         139.7948  144.2424  163.6510 C.ar    1  UNL1       -0.0064
      8 C         138.7885  144.0562  164.7478 C.ar    1  UNL1       -0.0029
      9 C         139.2066  143.4491  166.0541 C.ar    1  UNL1       -0.0003
     10 C         140.5503  143.0009  168.8604 C.2     1  UNL1        0.0598
     11 C         141.0491  142.4210  167.5701 C.2     1  UNL1        0.0047
     12 O         142.1776  142.9167  170.8839 O.2     1  UNL1       -0.2681
     13 C         140.9683  142.3938  170.1668 C.2     1  UNL1        0.2679
     14 N         140.1772  141.2638  170.7561 N.am    1  UNL1       -0.1934
     15 O         140.5954  140.6568  172.0625 O.3     1  UNL1       -0.2949
     16 H         139.3836  140.9205  170.2855 H       1  UNL1        0.1825
     17 H         141.3896  141.1078  172.3891 H       1  UNL1        0.2414
     18 C         138.4090  142.6354  161.3903 C.3     1  UNL1        0.0736
     19 C         139.1715  141.3710  161.1261 C.3     1  UNL1        0.0450
     20 C         140.0570  140.7930  162.1900 C.2     1  UNL1       -0.0015
     21 C         141.5355  140.5655  162.0791 C.2     1  UNL1        0.0829
     22 N         142.0116  139.9729  163.3722 N.2     1  UNL1       -0.2492
     23 C         140.8273  139.8341  164.2823 C.2     1  UNL1        0.0630
     24 C         140.6930  139.3117  165.6819 C.3     1  UNL1        0.0717
     25 C         139.3505  139.2961  166.3509 C.2     1  UNL1       -0.0198
     26 C         138.1425  139.8029  165.6203 C.2     1  UNL1       -0.0042
     27 C         138.2769  140.3253  164.2207 C.2     1  UNL1        0.0006
     28 C         139.6193  140.3409  163.5517 C.2     1  UNL1        0.0114
     29 C         142.3881  140.8762  160.8847 C.ar    1  UNL1        0.0468
     30 C         142.8147  142.2429  160.4374 C.ar    1  UNL1        0.0085
     31 C         143.6541  142.0861  159.2042 C.ar    1  UNL1        0.0075
     32 C         143.7464  140.6224  158.8894 C.ar    1  UNL1        0.0355
     33 S         142.9640  139.8747  159.9280 S.2     1  UNL1       -0.0849
@<TRIPOS>BOND
     1    12    13    2
     2    13    10    1
     3    10    11    2
     4    11     4    1
     5     4     5   ar
     6     5     6   ar
     7     6     7   ar
     8     7     3    1
     9     3     1    1
    10     1    18    1
    11    18    19    1
    12    19    20    1
    13    20    21    2
    14    21    29    1
    15    29    30   ar
    16    30    31   ar
    17    31    32   ar
    18    32    33   ar
    19    21    22    1
    20    22    23    2
    21    23    24    1
    22    24    25    1
    23    25    26    2
    24    26    27    1
    25    27    28    2
    26     7     8   ar
    27     8     9   ar
    28    13    14   am
    29    14    15    1
    30     9     4   ar
    31    28    20    1
    32    33    29   ar
    33    28    23    1
    34     1     2    1
    35    14    16    1
    36    15    17    1
@<TRIPOS>MOLECULE
*****
 33 36 0 0 0
SMALL
GASTEIGER

@<TRIPOS>ATOM
      1 N         139.6503  137.7878  161.7899 N.3     1  UNL1       -0.2935
      2 H         139.9205  136.8854  161.3987 H       1  UNL1        0.1236
      3 C         138.9814  137.5078  163.1029 C.3     1  UNL1        0.0956
      4 C         139.7534  140.1843  166.6372 C.ar    1  UNL1        0.0001
      5 C         140.6447  140.2564  165.4329 C.ar    1  UNL1       -0.0003
      6 C         140.3875  139.3642  164.2548 C.ar    1  UNL1       -0.0029
      7 C         139.2388  138.4000  164.2810 C.ar    1  UNL1       -0.0064
      8 C         138.3474  138.3278  165.4853 C.ar    1  UNL1       -0.0029
      9 C         138.6047  139.2200  166.6634 C.ar    1  UNL1       -0.0003
     10 C         140.4068  140.4817  169.1340 C.2     1  UNL1        0.0598
     11 C         140.0108  141.0765  167.8152 C.2     1  UNL1        0.0047
     12 O         139.5863  142.2920  170.8072 O.2     1  UNL1       -0.2681
     13 C         140.6642  141.3738  170.3122 C.2     1  UNL1        0.2679
     14 N         141.9993  141.3477  170.9952 N.am    1  UNL1       -0.1934
     15 O         142.2566  142.2399  172.1733 O.3     1  UNL1       -0.2949
     16 H         142.7068  140.7451  170.6704 H       1  UNL1        0.1825
     17 H         141.4627  142.7645  172.3611 H       1  UNL1        0.2414
     18 C         138.9091  138.5225  160.7124 C.3     1  UNL1        0.0736
     19 C         137.8145  139.4819  161.0753 C.3     1  UNL1        0.0450
     20 C         138.0833  140.9576  161.0847 C.2     1  UNL1       -0.0015
     21 C         138.4792  141.7893  159.9009 C.2     1  UNL1        0.0829
     22 N         138.6439  143.2064  160.3642 N.2     1  UNL1       -0.2492
     23 C         138.3497  143.2505  161.8344 C.2     1  UNL1        0.0630
     24 C         138.3526  144.3767  162.8252 C.3     1  UNL1        0.0717
     25 C         138.0090  144.1131  164.2613 C.2     1  UNL1       -0.0198
     26 C         137.6625  142.7232  164.7066 C.2     1  UNL1       -0.0042
     27 C         137.6596  141.5970  163.7158 C.2     1  UNL1        0.0006
     28 C         138.0032  141.8607  162.2797 C.2     1  UNL1        0.0114
     29 C         138.6759  141.2913  158.4997 C.ar    1  UNL1        0.0468
     30 C         137.5958  140.8200  157.5716 C.ar    1  UNL1        0.0085
     31 C         138.2396  140.4146  156.2789 C.ar    1  UNL1        0.0075
     32 C         139.7177  140.6352  156.4080 C.ar    1  UNL1        0.0355
     33 S         139.9873  141.1770  157.7805 S.2     1  UNL1       -0.0849
@<TRIPOS>BOND
     1    12    13    2
     2    13    10    1
     3    10    11    2
     4    11     4    1
     5     4     5   ar
     6     5     6   ar
     7     6     7   ar
     8     7     3    1
     9     3     1    1
    10     1    18    1
    11    18    19    1
    12    19    20    1
    13    20    21    2
    14    21    29    1
    15    29    30   ar
    16    30    31   ar
    17    31    32   ar
    18    32    33   ar
    19    21    22    1
    20    22    23    2
    21    23    24    1
    22    24    25    1
    23    25    26    2
    24    26    27    1
    25    27    28    2
    26     7     8   ar
    27     8     9   ar
    28    13    14   am
    29    14    15    1
    30     9     4   ar
    31    28    20    1
    32    33    29   ar
    33    28    23    1
    34     1     2    1
    35    14    16    1
    36    15    17    1
