@<TRIPOS>MOLECULE
*****
 40 44 0 0 0
SMALL
GASTEIGER

@<TRIPOS>ATOM
      1 C         141.3193  143.9695  158.1057 C.3     1  UNL1        0.0542
      2 C         140.6661  144.6980  159.2425 C.3     1  UNL1        0.0162
      3 C         141.2842  144.6644  160.6088 C.3     1  UNL1        0.0104
      4 C         142.5555  143.9022  160.8383 C.3     1  UNL1        0.0768
      5 C         143.2088  143.1736  159.7015 C.3     1  UNL1        0.0095
      6 C         144.1958  142.3318  158.9483 C.3     1  UNL1        0.0005
      7 C         144.1697  142.8476  160.8062 C.3     1  UNL1        0.0005
      8 C         142.5908  143.2072  158.3351 C.3     1  UNL1        0.0162
      9 C         143.1736  143.8686  162.2046 C.2     1  UNL1        0.2251
     10 O         144.3163  144.7830  162.5336 O.2     1  UNL1       -0.2749
     11 N         142.6491  142.9206  163.2420 N.am    1  UNL1       -0.2795
     12 C         141.5064  142.0062  162.9130 C.3     1  UNL1        0.0942
     13 C         140.9818  141.0581  163.9504 C.3     1  UNL1        0.0344
     14 C         141.5999  141.0245  165.3167 C.3     1  UNL1        0.0924
     15 C         142.7426  141.9389  165.6456 C.3     1  UNL1        0.0344
     16 C         143.2672  142.8869  164.6083 C.3     1  UNL1        0.0942
     17 C         141.8515  140.6252  166.7404 C.ar    1  UNL1       -0.0143
     18 C         142.6145  139.3698  167.0436 C.ar    1  UNL1       -0.0038
     19 C         142.8661  138.9705  168.4675 C.ar    1  UNL1       -0.0003
     20 C         142.3548  139.8264  169.5880 C.ar    1  UNL1       -0.0000
     21 C         141.5918  141.0817  169.2848 C.ar    1  UNL1       -0.0003
     22 C         141.3402  141.4812  167.8611 C.ar    1  UNL1       -0.0038
     23 C         140.5447  139.9714  165.4822 C.ar    1  UNL1        0.2290
     24 N         140.3893  138.7391  164.6411 N.ar    1  UNL1       -0.1114
     25 N         139.2081  137.9718  165.1569 N.ar    1  UNL1       -0.1117
     26 C         138.6335  138.7299  166.3166 C.ar    1  UNL1        0.2266
     27 C         137.4419  138.3236  167.1321 C.3     1  UNL1        0.0967
     28 O         139.4595  139.9658  166.5177 O.2     1  UNL1       -0.4230
     29 N         140.7012  144.0031  156.7394 N.3     1  UNL1       -0.2962
     30 H         140.8892  143.0977  156.3088 H       1  UNL1        0.1235
     31 C         141.1238  145.0489  155.7506 C.3     1  UNL1        0.0768
     32 C         142.2966  144.7987  154.8496 C.3     1  UNL1        0.0220
     33 C         138.8730  148.9366  155.4871 C.ar    1  UNL1        0.1387
     34 C         139.6815  148.4574  154.3182 C.ar    1  UNL1        0.0366
     35 C         140.4318  147.1615  154.4060 C.ar    1  UNL1        0.0001
     36 C         140.3735  146.3448  155.6628 C.ar    1  UNL1       -0.0078
     37 C         139.5649  146.8240  156.8317 C.ar    1  UNL1        0.0001
     38 C         138.8147  148.1199  156.7439 C.ar    1  UNL1        0.0366
     39 C         138.8691  151.5335  155.4105 C.3     1  UNL1        0.2525
     40 O         138.1227  150.2325  155.3993 O.3     1  UNL1       -0.4714
@<TRIPOS>BOND
     1    39    40    1
     2    40    33    1
     3    33    34   ar
     4    34    35   ar
     5    35    36   ar
     6    36    31    1
     7    31    32    1
     8    31    29    1
     9     1    29    1
    10     1     2    1
    11     2     3    1
    12     3     4    1
    13     4     9    1
    14     9    10    2
    15     9    11   am
    16    11    12    1
    17    12    13    1
    18    13    14    1
    19    14    17    1
    20    17    18   ar
    21    18    19   ar
    22    19    20   ar
    23    20    21   ar
    24    21    22   ar
    25    14    23    1
    26    23    24   ar
    27    24    25   ar
    28    25    26   ar
    29    26    27    1
    30    26    28   ar
    31    14    15    1
    32    15    16    1
    33     4     5    1
    34     5     6    1
    35     5     7    1
    36     5     8    1
    37    36    37   ar
    38    37    38   ar
    39    38    33   ar
    40     8     1    1
    41    16    11    1
    42    22    17   ar
    43    28    23   ar
    44    29    30    1
@<TRIPOS>MOLECULE
*****
 40 44 0 0 0
SMALL
GASTEIGER

@<TRIPOS>ATOM
      1 C         141.7801  141.8290  166.2132 C.3     1  UNL1        0.0542
      2 C         143.0300  141.1730  165.7059 C.3     1  UNL1        0.0162
      3 C         143.6641  141.6504  164.4332 C.3     1  UNL1        0.0104
      4 C         143.0484  142.7839  163.6677 C.3     1  UNL1        0.0768
      5 C         141.7984  143.4400  164.1749 C.3     1  UNL1        0.0095
      6 C         140.6275  144.3746  164.2491 C.3     1  UNL1        0.0005
      7 C         142.0259  144.2420  162.9280 C.3     1  UNL1        0.0005
      8 C         141.1643  142.9625  165.4477 C.3     1  UNL1        0.0162
      9 C         143.6825  143.2613  162.3949 C.2     1  UNL1        0.2251
     10 O         144.4456  144.5527  162.3756 O.2     1  UNL1       -0.2749
     11 N         143.5536  142.4475  161.1415 N.am    1  UNL1       -0.2795
     12 C         142.7906  141.1563  161.1609 C.3     1  UNL1        0.0942
     13 C         142.6616  140.3424  159.9074 C.3     1  UNL1        0.0344
     14 C         143.2958  140.8199  158.6347 C.3     1  UNL1        0.0924
     15 C         144.0588  142.1112  158.6154 C.3     1  UNL1        0.0344
     16 C         144.1877  142.9250  159.8688 C.3     1  UNL1        0.0942
     17 C         143.7155  140.8529  157.1950 C.ar    1  UNL1       -0.0143
     18 C         145.1558  140.6489  156.8288 C.ar    1  UNL1       -0.0038
     19 C         145.5755  140.6819  155.3891 C.ar    1  UNL1       -0.0003
     20 C         144.5551  140.9188  154.3156 C.ar    1  UNL1       -0.0000
     21 C         143.1149  141.1228  154.6818 C.ar    1  UNL1       -0.0003
     22 C         142.6950  141.0898  156.1214 C.ar    1  UNL1       -0.0038
     23 C         142.6785  139.5401  158.1540 C.ar    1  UNL1        0.2290
     24 N         141.2097  139.2504  158.0602 N.ar    1  UNL1       -0.1114
     25 N         141.0451  137.8565  157.5310 N.ar    1  UNL1       -0.1117
     26 C         142.4121  137.2848  157.2978 C.ar    1  UNL1        0.2266
     27 C         142.7161  135.9133  156.7719 C.3     1  UNL1        0.0967
     28 O         143.4216  138.3253  157.6828 O.2     1  UNL1       -0.4230
     29 N         141.1459  141.3516  167.4860 N.3     1  UNL1       -0.2962
     30 H         141.8768  140.8828  168.0212 H       1  UNL1        0.1235
     31 C         139.9768  140.4133  167.4354 C.3     1  UNL1        0.0768
     32 C         139.2383  140.0668  168.6941 C.3     1  UNL1        0.0220
     33 C         138.6849  138.6379  163.5074 C.ar    1  UNL1        0.1387
     34 C         139.7340  137.9523  164.3314 C.ar    1  UNL1        0.0366
     35 C         140.1647  138.5441  165.6407 C.ar    1  UNL1        0.0001
     36 C         139.5461  139.8215  166.1260 C.ar    1  UNL1       -0.0078
     37 C         138.4970  140.5071  165.3020 C.ar    1  UNL1        0.0001
     38 C         138.0663  139.9153  163.9927 C.ar    1  UNL1        0.0366
     39 C         139.1311  138.1826  160.9888 C.3     1  UNL1        0.2525
     40 O         138.2542  138.0461  162.1980 O.3     1  UNL1       -0.4714
@<TRIPOS>BOND
     1    39    40    1
     2    40    33    1
     3    33    34   ar
     4    34    35   ar
     5    35    36   ar
     6    36    31    1
     7    31    32    1
     8    31    29    1
     9     1    29    1
    10     1     2    1
    11     2     3    1
    12     3     4    1
    13     4     9    1
    14     9    10    2
    15     9    11   am
    16    11    12    1
    17    12    13    1
    18    13    14    1
    19    14    17    1
    20    17    18   ar
    21    18    19   ar
    22    19    20   ar
    23    20    21   ar
    24    21    22   ar
    25    14    23    1
    26    23    24   ar
    27    24    25   ar
    28    25    26   ar
    29    26    27    1
    30    26    28   ar
    31    14    15    1
    32    15    16    1
    33     4     5    1
    34     5     6    1
    35     5     7    1
    36     5     8    1
    37    36    37   ar
    38    37    38   ar
    39    38    33   ar
    40     8     1    1
    41    16    11    1
    42    22    17   ar
    43    28    23   ar
    44    29    30    1
@<TRIPOS>MOLECULE
*****
 40 44 0 0 0
SMALL
GASTEIGER

@<TRIPOS>ATOM
      1 C         138.6527  141.0225  164.1465 C.3     1  UNL1        0.0542
      2 C         139.7900  140.7033  163.2221 C.3     1  UNL1        0.0162
      3 C         140.4176  141.7910  162.4017 C.3     1  UNL1        0.0104
      4 C         139.9080  143.1978  162.5058 C.3     1  UNL1        0.0768
      5 C         138.7706  143.5171  163.4303 C.3     1  UNL1        0.0095
      6 C         137.7251  144.3096  164.1575 C.3     1  UNL1        0.0005
      7 C         139.0352  144.8800  162.8625 C.3     1  UNL1        0.0005
      8 C         138.1430  142.4294  164.2506 C.3     1  UNL1        0.0162
      9 C         140.5356  144.2855  161.6854 C.2     1  UNL1        0.2251
     10 O         141.4535  145.2792  162.3338 O.2     1  UNL1       -0.2749
     11 N         140.2454  144.3796  160.2168 N.am    1  UNL1       -0.2795
     12 C         139.3276  143.3860  159.5686 C.3     1  UNL1        0.0942
     13 C         139.0374  143.4800  158.0999 C.3     1  UNL1        0.0344
     14 C         139.6650  144.5677  157.2795 C.3     1  UNL1        0.0924
     15 C         140.5829  145.5613  157.9278 C.3     1  UNL1        0.0344
     16 C         140.8731  145.4673  159.3964 C.3     1  UNL1        0.0942
     17 C         140.0162  145.4121  156.0906 C.ar    1  UNL1       -0.0143
     18 C         140.9683  144.8908  155.0553 C.ar    1  UNL1       -0.0038
     19 C         141.3195  145.7353  153.8664 C.ar    1  UNL1       -0.0003
     20 C         140.7188  147.1010  153.7127 C.ar    1  UNL1       -0.0000
     21 C         139.7668  147.6223  154.7480 C.ar    1  UNL1       -0.0003
     22 C         139.4155  146.7780  155.9370 C.ar    1  UNL1       -0.0038
     23 C         138.8692  143.8673  156.2183 C.ar    1  UNL1        0.2290
     24 N         138.9200  142.4021  155.9010 N.ar    1  UNL1       -0.1114
     25 N         137.9650  142.1384  154.7747 N.ar    1  UNL1       -0.1117
     26 C         137.3240  143.4406  154.3961 C.ar    1  UNL1        0.2266
     27 C         136.3033  143.6393  153.3150 C.3     1  UNL1        0.0967
     28 O         137.8827  144.5091  155.2883 O.2     1  UNL1       -0.4230
     29 N         138.0251  139.9348  164.9669 N.3     1  UNL1       -0.2962
     30 H         137.4160  140.3919  165.6454 H       1  UNL1        0.1235
     31 C         138.8905  138.9809  165.7357 C.3     1  UNL1        0.0768
     32 C         138.8337  137.5115  165.4397 C.3     1  UNL1        0.0220
     33 C         141.6574  140.5273  168.9299 C.ar    1  UNL1        0.1387
     34 C         142.2048  140.1317  167.5906 C.ar    1  UNL1        0.0366
     35 C         141.2826  139.6163  166.5259 C.ar    1  UNL1        0.0001
     36 C         139.8128  139.4964  166.8004 C.ar    1  UNL1       -0.0078
     37 C         139.2654  139.8919  168.1397 C.ar    1  UNL1        0.0001
     38 C         140.1876  140.4074  169.2044 C.ar    1  UNL1        0.0366
     39 C         143.5608  142.1312  169.6744 C.3     1  UNL1        0.2525
     40 O         142.5797  141.0428  169.9946 O.3     1  UNL1       -0.4714
@<TRIPOS>BOND
     1    39    40    1
     2    40    33    1
     3    33    34   ar
     4    34    35   ar
     5    35    36   ar
     6    36    31    1
     7    31    32    1
     8    31    29    1
     9     1    29    1
    10     1     2    1
    11     2     3    1
    12     3     4    1
    13     4     9    1
    14     9    10    2
    15     9    11   am
    16    11    12    1
    17    12    13    1
    18    13    14    1
    19    14    17    1
    20    17    18   ar
    21    18    19   ar
    22    19    20   ar
    23    20    21   ar
    24    21    22   ar
    25    14    23    1
    26    23    24   ar
    27    24    25   ar
    28    25    26   ar
    29    26    27    1
    30    26    28   ar
    31    14    15    1
    32    15    16    1
    33     4     5    1
    34     5     6    1
    35     5     7    1
    36     5     8    1
    37    36    37   ar
    38    37    38   ar
    39    38    33   ar
    40     8     1    1
    41    16    11    1
    42    22    17   ar
    43    28    23   ar
    44    29    30    1
@<TRIPOS>MOLECULE
*****
 40 44 0 0 0
SMALL
GASTEIGER

@<TRIPOS>ATOM
      1 C         140.9725  144.5503  159.0561 C.3     1  UNL1        0.0542
      2 C         142.1471  143.6568  159.3244 C.3     1  UNL1        0.0162
      3 C         142.7026  143.5450  160.7132 C.3     1  UNL1        0.0104
      4 C         142.0834  144.3266  161.8338 C.3     1  UNL1        0.0768
      5 C         140.9088  145.2201  161.5656 C.3     1  UNL1        0.0095
      6 C         139.7924  146.1919  161.8090 C.3     1  UNL1        0.0005
      7 C         141.0765  145.4458  163.0389 C.3     1  UNL1        0.0005
      8 C         140.3533  145.3319  160.1767 C.3     1  UNL1        0.0162
      9 C         142.6389  144.2148  163.2227 C.2     1  UNL1        0.2251
     10 O         143.6862  145.1809  163.6916 O.2     1  UNL1       -0.2749
     11 N         142.1472  143.1369  164.1426 N.am    1  UNL1       -0.2795
     12 C         141.0999  142.1708  163.6736 C.3     1  UNL1        0.0942
     13 C         140.6081  141.0929  164.5936 C.3     1  UNL1        0.0344
     14 C         141.1636  140.9810  165.9824 C.3     1  UNL1        0.0924
     15 C         142.2109  141.9472  166.4513 C.3     1  UNL1        0.0344
     16 C         142.7027  143.0250  165.5314 C.3     1  UNL1        0.0942
     17 C         141.3817  140.4723  167.3765 C.ar    1  UNL1       -0.0143
     18 C         140.5391  140.9903  168.5043 C.ar    1  UNL1       -0.0038
     19 C         140.7572  140.4815  169.8984 C.ar    1  UNL1       -0.0003
     20 C         141.8178  139.4550  170.1649 C.ar    1  UNL1       -0.0000
     21 C         142.6604  138.9371  169.0372 C.ar    1  UNL1       -0.0003
     22 C         142.4424  139.4457  167.6430 C.ar    1  UNL1       -0.0038
     23 C         140.1921  139.8383  165.9976 C.ar    1  UNL1        0.2290
     24 N         140.2123  138.6516  165.0804 N.ar    1  UNL1       -0.1114
     25 N         139.0625  137.7615  165.4486 N.ar    1  UNL1       -0.1117
     26 C         138.3316  138.3981  166.5934 C.ar    1  UNL1        0.2266
     27 C         137.1160  137.8478  167.2785 C.3     1  UNL1        0.0967
     28 O         139.0297  139.6817  166.9327 O.2     1  UNL1       -0.4230
     29 N         140.4170  144.6621  157.6672 N.3     1  UNL1       -0.2962
     30 H         139.8838  145.5310  157.6324 H       1  UNL1        0.1235
     31 C         139.5242  143.5844  157.1275 C.3     1  UNL1        0.0768
     32 C         138.7777  143.8014  155.8447 C.3     1  UNL1        0.0220
     33 C         139.0853  139.7000  159.3567 C.ar    1  UNL1        0.1387
     34 C         139.9896  139.7815  158.1628 C.ar    1  UNL1        0.0366
     35 C         140.1359  141.0763  157.4197 C.ar    1  UNL1        0.0001
     36 C         139.3779  142.2896  157.8706 C.ar    1  UNL1       -0.0078
     37 C         138.4736  142.2081  159.0646 C.ar    1  UNL1        0.0001
     38 C         138.3273  140.9133  159.8076 C.ar    1  UNL1        0.0366
     39 C         138.4785  138.4076  161.5273 C.3     1  UNL1        0.2525
     40 O         138.9390  138.4052  160.0998 O.3     1  UNL1       -0.4714
@<TRIPOS>BOND
     1    39    40    1
     2    40    33    1
     3    33    34   ar
     4    34    35   ar
     5    35    36   ar
     6    36    31    1
     7    31    32    1
     8    31    29    1
     9     1    29    1
    10     1     2    1
    11     2     3    1
    12     3     4    1
    13     4     9    1
    14     9    10    2
    15     9    11   am
    16    11    12    1
    17    12    13    1
    18    13    14    1
    19    14    17    1
    20    17    18   ar
    21    18    19   ar
    22    19    20   ar
    23    20    21   ar
    24    21    22   ar
    25    14    23    1
    26    23    24   ar
    27    24    25   ar
    28    25    26   ar
    29    26    27    1
    30    26    28   ar
    31    14    15    1
    32    15    16    1
    33     4     5    1
    34     5     6    1
    35     5     7    1
    36     5     8    1
    37    36    37   ar
    38    37    38   ar
    39    38    33   ar
    40     8     1    1
    41    16    11    1
    42    22    17   ar
    43    28    23   ar
    44    29    30    1
@<TRIPOS>MOLECULE
*****
 40 44 0 0 0
SMALL
GASTEIGER

@<TRIPOS>ATOM
      1 C         140.9377  142.8392  166.1686 C.3     1  UNL1        0.0542
      2 C         142.0966  142.9186  165.2197 C.3     1  UNL1        0.0162
      3 C         141.9096  143.5139  163.8556 C.3     1  UNL1        0.0104
      4 C         140.5637  144.0297  163.4405 C.3     1  UNL1        0.0768
      5 C         139.4047  143.9504  164.3895 C.3     1  UNL1        0.0095
      6 C         138.0130  144.0952  164.9299 C.3     1  UNL1        0.0005
      7 C         138.7344  144.5959  163.2131 C.3     1  UNL1        0.0005
      8 C         139.5917  143.3551  165.7535 C.3     1  UNL1        0.0162
      9 C         140.3768  144.6250  162.0764 C.2     1  UNL1        0.2251
     10 O         140.3016  146.1141  161.9118 O.2     1  UNL1       -0.2749
     11 N         140.2649  143.7313  160.8770 N.am    1  UNL1       -0.2795
     12 C         140.3401  142.2423  161.0416 C.3     1  UNL1        0.0942
     13 C         140.2282  141.3484  159.8422 C.3     1  UNL1        0.0344
     14 C         140.0413  141.9437  158.4781 C.3     1  UNL1        0.0924
     15 C         139.9661  143.4328  158.3135 C.3     1  UNL1        0.0344
     16 C         140.0780  144.3266  159.5129 C.3     1  UNL1        0.0942
     17 C         139.8583  142.0326  156.9920 C.ar    1  UNL1       -0.0143
     18 C         138.5174  141.7478  156.3830 C.ar    1  UNL1       -0.0038
     19 C         138.3345  141.8367  154.8968 C.ar    1  UNL1       -0.0003
     20 C         139.4924  142.2103  154.0197 C.ar    1  UNL1       -0.0000
     21 C         140.8333  142.4951  154.6286 C.ar    1  UNL1       -0.0003
     22 C         141.0163  142.4062  156.1148 C.ar    1  UNL1       -0.0038
     23 C         140.0529  140.4855  158.1266 C.ar    1  UNL1        0.2290
     24 N         138.9448  139.5078  158.3839 N.ar    1  UNL1       -0.1114
     25 N         139.3817  138.1671  157.8725 N.ar    1  UNL1       -0.1117
     26 C         140.7597  138.3162  157.2991 C.ar    1  UNL1        0.2266
     27 C         141.5790  137.2242  156.6777 C.3     1  UNL1        0.0967
     28 O         141.1745  139.7492  157.4561 O.2     1  UNL1       -0.4230
     29 N         141.1247  142.2439  167.5327 N.3     1  UNL1       -0.2962
     30 H         142.0732  142.4755  167.8276 H       1  UNL1        0.1235
     31 C         140.9564  140.7674  167.7362 C.3     1  UNL1        0.0768
     32 C         141.3591  140.1389  169.0372 C.3     1  UNL1        0.0220
     33 C         139.2435  138.2231  164.4433 C.ar    1  UNL1        0.1387
     34 C         138.3294  138.8949  165.4247 C.ar    1  UNL1        0.0366
     35 C         138.9004  139.7430  166.5223 C.ar    1  UNL1        0.0001
     36 C         140.3854  139.9193  166.6385 C.ar    1  UNL1       -0.0078
     37 C         141.2995  139.2475  165.6571 C.ar    1  UNL1        0.0001
     38 C         140.7285  138.3994  164.5595 C.ar    1  UNL1        0.0366
     39 C         138.2089  138.0124  162.0695 C.3     1  UNL1        0.2525
     40 O         138.6726  137.3751  163.3457 O.3     1  UNL1       -0.4714
@<TRIPOS>BOND
     1    39    40    1
     2    40    33    1
     3    33    34   ar
     4    34    35   ar
     5    35    36   ar
     6    36    31    1
     7    31    32    1
     8    31    29    1
     9     1    29    1
    10     1     2    1
    11     2     3    1
    12     3     4    1
    13     4     9    1
    14     9    10    2
    15     9    11   am
    16    11    12    1
    17    12    13    1
    18    13    14    1
    19    14    17    1
    20    17    18   ar
    21    18    19   ar
    22    19    20   ar
    23    20    21   ar
    24    21    22   ar
    25    14    23    1
    26    23    24   ar
    27    24    25   ar
    28    25    26   ar
    29    26    27    1
    30    26    28   ar
    31    14    15    1
    32    15    16    1
    33     4     5    1
    34     5     6    1
    35     5     7    1
    36     5     8    1
    37    36    37   ar
    38    37    38   ar
    39    38    33   ar
    40     8     1    1
    41    16    11    1
    42    22    17   ar
    43    28    23   ar
    44    29    30    1
@<TRIPOS>MOLECULE
*****
 40 44 0 0 0
SMALL
GASTEIGER

@<TRIPOS>ATOM
      1 C         141.4355  143.8555  158.1084 C.3     1  UNL1        0.0542
      2 C         140.6816  144.6350  159.1447 C.3     1  UNL1        0.0162
      3 C         141.1976  144.7074  160.5513 C.3     1  UNL1        0.0104
      4 C         142.4675  144.0001  160.9216 C.3     1  UNL1        0.0768
      5 C         143.2215  143.2205  159.8853 C.3     1  UNL1        0.0095
      6 C         144.2825  142.3626  159.2624 C.3     1  UNL1        0.0005
      7 C         144.1059  142.9949  161.0755 C.3     1  UNL1        0.0005
      8 C         142.7055  143.1482  158.4787 C.3     1  UNL1        0.0162
      9 C         142.9835  144.0725  162.3282 C.2     1  UNL1        0.2251
     10 O         144.0225  145.0906  162.6945 O.2     1  UNL1       -0.2749
     11 N         142.4607  143.1267  163.3684 N.am    1  UNL1       -0.2795
     12 C         141.4218  142.1087  163.0021 C.3     1  UNL1        0.0942
     13 C         140.8989  141.1629  164.0423 C.3     1  UNL1        0.0344
     14 C         141.4149  141.2352  165.4489 C.3     1  UNL1        0.0924
     15 C         142.4538  142.2533  165.8153 C.3     1  UNL1        0.0344
     16 C         142.9767  143.1990  164.7750 C.3     1  UNL1        0.0942
     17 C         141.5914  140.9154  166.9037 C.ar    1  UNL1       -0.0143
     18 C         142.4011  139.7221  167.3165 C.ar    1  UNL1       -0.0038
     19 C         142.5776  139.4023  168.7714 C.ar    1  UNL1       -0.0003
     20 C         141.9444  140.2757  169.8134 C.ar    1  UNL1       -0.0000
     21 C         141.1346  141.4690  169.4007 C.ar    1  UNL1       -0.0003
     22 C         140.9580  141.7888  167.9459 C.ar    1  UNL1       -0.0038
     23 C         140.4373  140.1060  165.5878 C.ar    1  UNL1        0.2290
     24 N         140.4341  138.8389  164.7852 N.ar    1  UNL1       -0.1114
     25 N         139.2861  137.9955  165.2550 N.ar    1  UNL1       -0.1117
     26 C         138.5798  138.7414  166.3480 C.ar    1  UNL1        0.2266
     27 C         137.3738  138.2663  167.1028 C.3     1  UNL1        0.0967
     28 O         139.2913  140.0458  166.5538 O.2     1  UNL1       -0.4230
     29 N         140.9195  143.7831  156.7018 N.3     1  UNL1       -0.2962
     30 H         141.5238  144.3785  156.1355 H       1  UNL1        0.1235
     31 C         139.5071  144.1874  156.3994 C.3     1  UNL1        0.0768
     32 C         139.1864  145.6202  156.0926 C.3     1  UNL1        0.0220
     33 C         136.2317  141.1016  156.4124 C.ar    1  UNL1        0.1387
     34 C         136.2033  142.2213  155.4147 C.ar    1  UNL1        0.0366
     35 C         137.2951  143.2499  155.4104 C.ar    1  UNL1        0.0001
     36 C         138.4153  143.1588  156.4037 C.ar    1  UNL1       -0.0078
     37 C         138.4437  142.0391  157.4014 C.ar    1  UNL1        0.0001
     38 C         137.3519  141.0105  157.4057 C.ar    1  UNL1        0.0366
     39 C         133.7144  140.4915  156.2106 C.3     1  UNL1        0.2525
     40 O         135.1400  140.0730  156.4167 O.3     1  UNL1       -0.4714
@<TRIPOS>BOND
     1    39    40    1
     2    40    33    1
     3    33    34   ar
     4    34    35   ar
     5    35    36   ar
     6    36    31    1
     7    31    32    1
     8    31    29    1
     9     1    29    1
    10     1     2    1
    11     2     3    1
    12     3     4    1
    13     4     9    1
    14     9    10    2
    15     9    11   am
    16    11    12    1
    17    12    13    1
    18    13    14    1
    19    14    17    1
    20    17    18   ar
    21    18    19   ar
    22    19    20   ar
    23    20    21   ar
    24    21    22   ar
    25    14    23    1
    26    23    24   ar
    27    24    25   ar
    28    25    26   ar
    29    26    27    1
    30    26    28   ar
    31    14    15    1
    32    15    16    1
    33     4     5    1
    34     5     6    1
    35     5     7    1
    36     5     8    1
    37    36    37   ar
    38    37    38   ar
    39    38    33   ar
    40     8     1    1
    41    16    11    1
    42    22    17   ar
    43    28    23   ar
    44    29    30    1
@<TRIPOS>MOLECULE
*****
 40 44 0 0 0
SMALL
GASTEIGER

@<TRIPOS>ATOM
      1 C         141.9450  139.2035  165.7500 C.3     1  UNL1        0.0542
      2 C         141.2720  138.0644  165.0434 C.3     1  UNL1        0.0162
      3 C         141.6877  137.6954  163.6501 C.3     1  UNL1        0.0104
      4 C         142.7765  138.4656  162.9636 C.3     1  UNL1        0.0768
      5 C         143.4496  139.6048  163.6703 C.3     1  UNL1        0.0095
      6 C         144.3791  140.7545  163.9236 C.3     1  UNL1        0.0005
      7 C         144.1881  139.6351  162.3651 C.3     1  UNL1        0.0005
      8 C         143.0338  139.9737  165.0635 C.3     1  UNL1        0.0162
      9 C         143.1922  138.0967  161.5704 C.2     1  UNL1        0.2251
     10 O         144.4447  137.3020  161.3471 O.2     1  UNL1       -0.2749
     11 N         142.3555  138.5224  160.4005 N.am    1  UNL1       -0.2795
     12 C         141.1031  139.3171  160.6238 C.3     1  UNL1        0.0942
     13 C         140.2664  139.7429  159.4539 C.3     1  UNL1        0.0344
     14 C         140.6821  139.3740  158.0607 C.3     1  UNL1        0.0924
     15 C         141.9346  138.5792  157.8374 C.3     1  UNL1        0.0344
     16 C         142.7713  138.1535  159.0073 C.3     1  UNL1        0.0942
     17 C         140.6602  139.2683  156.5646 C.ar    1  UNL1       -0.0143
     18 C         139.6972  138.3350  155.8927 C.ar    1  UNL1       -0.0038
     19 C         139.6753  138.2294  154.3965 C.ar    1  UNL1       -0.0003
     20 C         140.6165  139.0568  153.5724 C.ar    1  UNL1       -0.0000
     21 C         141.5796  139.9901  154.2443 C.ar    1  UNL1       -0.0003
     22 C         141.6015  140.0958  155.7404 C.ar    1  UNL1       -0.0038
     23 C         139.4221  140.1319  157.7645 C.ar    1  UNL1        0.2290
     24 N         138.0421  139.7608  158.2204 N.ar    1  UNL1       -0.1114
     25 N         137.0879  140.7936  157.6980 N.ar    1  UNL1       -0.1117
     26 C         137.8783  141.8030  156.9193 C.ar    1  UNL1        0.2266
     27 C         137.3234  143.0096  156.2219 C.3     1  UNL1        0.0967
     28 O         139.3209  141.3941  156.9603 O.2     1  UNL1       -0.4230
     29 N         141.5293  139.5724  167.1432 N.3     1  UNL1       -0.2962
     30 H         141.4734  138.7030  167.6738 H       1  UNL1        0.1235
     31 C         140.2396  140.3032  167.3724 C.3     1  UNL1        0.0768
     32 C         139.4915  140.1188  168.6593 C.3     1  UNL1        0.0220
     33 C         138.6150  143.0492  164.1990 C.ar    1  UNL1        0.1387
     34 C         138.0749  141.6563  164.3338 C.ar    1  UNL1        0.0366
     35 C         138.6164  140.7410  165.3916 C.ar    1  UNL1        0.0001
     36 C         139.6981  141.2186  166.3146 C.ar    1  UNL1       -0.0078
     37 C         140.2382  142.6114  166.1798 C.ar    1  UNL1        0.0001
     38 C         139.6966  143.5267  165.1220 C.ar    1  UNL1        0.0366
     39 C         138.9015  145.1140  162.6484 C.3     1  UNL1        0.2525
     40 O         138.0734  143.9645  163.1412 O.3     1  UNL1       -0.4714
@<TRIPOS>BOND
     1    39    40    1
     2    40    33    1
     3    33    34   ar
     4    34    35   ar
     5    35    36   ar
     6    36    31    1
     7    31    32    1
     8    31    29    1
     9     1    29    1
    10     1     2    1
    11     2     3    1
    12     3     4    1
    13     4     9    1
    14     9    10    2
    15     9    11   am
    16    11    12    1
    17    12    13    1
    18    13    14    1
    19    14    17    1
    20    17    18   ar
    21    18    19   ar
    22    19    20   ar
    23    20    21   ar
    24    21    22   ar
    25    14    23    1
    26    23    24   ar
    27    24    25   ar
    28    25    26   ar
    29    26    27    1
    30    26    28   ar
    31    14    15    1
    32    15    16    1
    33     4     5    1
    34     5     6    1
    35     5     7    1
    36     5     8    1
    37    36    37   ar
    38    37    38   ar
    39    38    33   ar
    40     8     1    1
    41    16    11    1
    42    22    17   ar
    43    28    23   ar
    44    29    30    1
@<TRIPOS>MOLECULE
*****
 40 44 0 0 0
SMALL
GASTEIGER

@<TRIPOS>ATOM
      1 C         140.4582  142.7173  166.2296 C.3     1  UNL1        0.0542
      2 C         141.7953  143.0093  165.6159 C.3     1  UNL1        0.0162
      3 C         141.8754  143.6297  164.2526 C.3     1  UNL1        0.0104
      4 C         140.6184  143.9580  163.5029 C.3     1  UNL1        0.0768
      5 C         139.2812  143.6660  164.1167 C.3     1  UNL1        0.0095
      6 C         137.7922  143.5789  164.2762 C.3     1  UNL1        0.0005
      7 C         138.8442  144.2561  162.8087 C.3     1  UNL1        0.0005
      8 C         139.2011  143.0456  165.4800 C.3     1  UNL1        0.0162
      9 C         140.6985  144.5784  162.1396 C.2     1  UNL1        0.2251
     10 O         140.4218  146.0422  161.9643 O.2     1  UNL1       -0.2749
     11 N         141.0553  143.7350  160.9516 N.am    1  UNL1       -0.2795
     12 C         141.3321  142.2713  161.1270 C.3     1  UNL1        0.0942
     13 C         141.6889  141.4278  159.9390 C.3     1  UNL1        0.0344
     14 C         141.7690  142.0482  158.5756 C.3     1  UNL1        0.0924
     15 C         141.4923  143.5120  158.4003 C.3     1  UNL1        0.0344
     16 C         141.1354  144.3554  159.5883 C.3     1  UNL1        0.0942
     17 C         141.9694  142.1756  157.0946 C.ar    1  UNL1       -0.0143
     18 C         143.3564  142.2636  156.5302 C.ar    1  UNL1       -0.0038
     19 C         143.5567  142.3909  155.0491 C.ar    1  UNL1       -0.0003
     20 C         142.3702  142.4303  154.1324 C.ar    1  UNL1       -0.0000
     21 C         140.9832  142.3423  154.6967 C.ar    1  UNL1       -0.0003
     22 C         140.7827  142.2149  156.1778 C.ar    1  UNL1       -0.0038
     23 C         142.1153  140.6286  158.2366 C.ar    1  UNL1        0.2290
     24 N         143.3913  139.9238  158.5904 N.ar    1  UNL1       -0.1114
     25 N         143.3111  138.5243  158.0568 N.ar    1  UNL1       -0.1117
     26 C         141.9855  138.3641  157.3732 C.ar    1  UNL1        0.2266
     27 C         141.4866  137.1215  156.6972 C.3     1  UNL1        0.0967
     28 O         141.2465  139.6647  157.4844 O.2     1  UNL1       -0.4230
     29 N         140.3781  142.0969  167.5930 N.3     1  UNL1       -0.2962
     30 H         141.2110  142.3942  168.1012 H       1  UNL1        0.1235
     31 C         140.2935  140.6060  167.7348 C.3     1  UNL1        0.0768
     32 C         140.0256  139.9945  169.0780 C.3     1  UNL1        0.0220
     33 C         140.8435  137.9682  164.1307 C.ar    1  UNL1        0.1387
     34 C         142.0402  138.4628  164.8878 C.ar    1  UNL1        0.0366
     35 C         141.8569  139.3421  166.0891 C.ar    1  UNL1        0.0001
     36 C         140.4768  139.7268  166.5334 C.ar    1  UNL1       -0.0078
     37 C         139.2801  139.2322  165.7764 C.ar    1  UNL1        0.0001
     38 C         139.4634  138.3529  164.5750 C.ar    1  UNL1        0.0366
     39 C         141.7043  137.6257  161.7034 C.3     1  UNL1        0.2525
     40 O         141.0268  137.0889  162.9294 O.3     1  UNL1       -0.4714
@<TRIPOS>BOND
     1    39    40    1
     2    40    33    1
     3    33    34   ar
     4    34    35   ar
     5    35    36   ar
     6    36    31    1
     7    31    32    1
     8    31    29    1
     9     1    29    1
    10     1     2    1
    11     2     3    1
    12     3     4    1
    13     4     9    1
    14     9    10    2
    15     9    11   am
    16    11    12    1
    17    12    13    1
    18    13    14    1
    19    14    17    1
    20    17    18   ar
    21    18    19   ar
    22    19    20   ar
    23    20    21   ar
    24    21    22   ar
    25    14    23    1
    26    23    24   ar
    27    24    25   ar
    28    25    26   ar
    29    26    27    1
    30    26    28   ar
    31    14    15    1
    32    15    16    1
    33     4     5    1
    34     5     6    1
    35     5     7    1
    36     5     8    1
    37    36    37   ar
    38    37    38   ar
    39    38    33   ar
    40     8     1    1
    41    16    11    1
    42    22    17   ar
    43    28    23   ar
    44    29    30    1
@<TRIPOS>MOLECULE
*****
 40 44 0 0 0
SMALL
GASTEIGER

@<TRIPOS>ATOM
      1 C         143.7883  139.7528  160.8750 C.3     1  UNL1        0.0542
      2 C         142.6794  138.7588  161.0544 C.3     1  UNL1        0.0162
      3 C         141.9288  138.2489  159.8600 C.3     1  UNL1        0.0104
      4 C         142.2869  138.7331  158.4863 C.3     1  UNL1        0.0768
      5 C         143.3958  139.7272  158.3068 C.3     1  UNL1        0.0095
      6 C         144.3604  140.6563  157.6312 C.3     1  UNL1        0.0005
      7 C         142.9801  139.5400  156.8778 C.3     1  UNL1        0.0005
      8 C         144.1465  140.2371  159.5012 C.3     1  UNL1        0.0162
      9 C         141.5362  138.2233  157.2919 C.2     1  UNL1        0.2251
     10 O         140.5547  139.1124  156.5873 O.2     1  UNL1       -0.2749
     11 N         141.7670  136.8244  156.8021 N.am    1  UNL1       -0.2795
     12 C         142.7484  135.9355  157.5066 C.3     1  UNL1        0.0942
     13 C         142.9792  134.5365  157.0168 C.3     1  UNL1        0.0344
     14 C         142.2285  134.0267  155.8225 C.3     1  UNL1        0.0924
     15 C         141.2470  134.9158  155.1179 C.3     1  UNL1        0.0344
     16 C         141.0163  136.3146  155.6077 C.3     1  UNL1        0.0942
     17 C         141.7624  133.0958  154.7426 C.ar    1  UNL1       -0.0143
     18 C         140.8779  131.9336  155.0844 C.ar    1  UNL1       -0.0038
     19 C         140.4119  131.0027  154.0044 C.ar    1  UNL1       -0.0003
     20 C         140.8303  131.2340  152.5827 C.ar    1  UNL1       -0.0000
     21 C         141.7148  132.3963  152.2409 C.ar    1  UNL1       -0.0003
     22 C         142.1809  133.3272  153.3208 C.ar    1  UNL1       -0.0038
     23 C         143.0481  132.8144  156.1520 C.ar    1  UNL1        0.2290
     24 N         144.2838  132.3631  155.4313 N.ar    1  UNL1       -0.1114
     25 N         144.7753  131.1103  156.0939 N.ar    1  UNL1       -0.1117
     26 C         143.8434  130.7875  157.2241 C.ar    1  UNL1        0.2266
     27 C         143.9587  129.6169  158.1549 C.3     1  UNL1        0.0967
     28 O         142.7759  131.8407  157.2600 O.2     1  UNL1       -0.4230
     29 N         144.5390  140.2627  162.0694 N.3     1  UNL1       -0.2962
     30 H         144.8538  139.4444  162.5906 H       1  UNL1        0.1235
     31 C         143.8580  141.1672  163.0532 C.3     1  UNL1        0.0768
     32 C         143.5076  142.5723  162.6623 C.3     1  UNL1        0.0220
     33 C         142.8659  139.6653  167.1776 C.ar    1  UNL1        0.1387
     34 C         143.2326  138.6950  166.0941 C.ar    1  UNL1        0.0366
     35 C         143.5632  139.1956  164.7193 C.ar    1  UNL1        0.0001
     36 C         143.5273  140.6666  164.4280 C.ar    1  UNL1       -0.0078
     37 C         143.1607  141.6369  165.5115 C.ar    1  UNL1        0.0001
     38 C         142.8300  141.1363  166.8863 C.ar    1  UNL1        0.0366
     39 C         142.6691  140.0773  169.7352 C.3     1  UNL1        0.2525
     40 O         142.5353  139.1647  168.5524 O.3     1  UNL1       -0.4714
@<TRIPOS>BOND
     1    39    40    1
     2    40    33    1
     3    33    34   ar
     4    34    35   ar
     5    35    36   ar
     6    36    31    1
     7    31    32    1
     8    31    29    1
     9     1    29    1
    10     1     2    1
    11     2     3    1
    12     3     4    1
    13     4     9    1
    14     9    10    2
    15     9    11   am
    16    11    12    1
    17    12    13    1
    18    13    14    1
    19    14    17    1
    20    17    18   ar
    21    18    19   ar
    22    19    20   ar
    23    20    21   ar
    24    21    22   ar
    25    14    23    1
    26    23    24   ar
    27    24    25   ar
    28    25    26   ar
    29    26    27    1
    30    26    28   ar
    31    14    15    1
    32    15    16    1
    33     4     5    1
    34     5     6    1
    35     5     7    1
    36     5     8    1
    37    36    37   ar
    38    37    38   ar
    39    38    33   ar
    40     8     1    1
    41    16    11    1
    42    22    17   ar
    43    28    23   ar
    44    29    30    1
