@<TRIPOS>MOLECULE
*****
 34 37 0 0 0
SMALL
GASTEIGER

@<TRIPOS>ATOM
      1 C         140.6184  139.5641  160.3532 C.ar    1  UNL1        0.0750
      2 C         140.7366  139.0437  161.7550 C.ar    1  UNL1        0.1139
      3 N         140.4027  139.9331  162.9158 N.ar    1  UNL1       -0.2425
      4 C         139.9507  141.3429  162.6747 C.ar    1  UNL1        0.0828
      5 C         139.6169  142.2323  163.8356 C.ar    1  UNL1        0.0230
      6 C         139.1649  143.6421  163.5946 C.ar    1  UNL1        0.0744
      7 C         139.0468  144.1625  162.1927 C.ar    1  UNL1        0.0230
      8 C         139.3806  143.2731  161.0319 C.ar    1  UNL1        0.0827
      9 C         139.8326  141.8633  161.2729 C.ar    1  UNL1        0.0366
     10 C         140.1665  140.9739  160.1121 C.ar    1  UNL1        0.0197
     11 N         141.6201  136.8959  156.8706 N.pl3   1  UNL1       -0.2801
     12 C         140.2453  137.4829  156.9946 C.2     1  UNL1        0.0822
     13 C         139.9114  138.3723  158.1555 C.2     1  UNL1        0.0859
     14 N         140.9523  138.6747  159.1923 N.pl3   1  UNL1       -0.2597
     15 C         142.3271  138.0877  159.0683 C.2     1  UNL1        0.0859
     16 C         142.6610  137.1983  157.9075 C.2     1  UNL1        0.0822
     17 C         141.9539  136.0065  155.7098 C.3     1  UNL1        0.1312
     18 C         141.9205  134.5159  155.8732 C.3     1  UNL1        0.2038
     19 O         141.8870  133.0251  156.0366 O.3     1  UNL1       -0.2185
     20 C         138.8310  144.5315  164.7554 C.3     1  UNL1        0.4187
     21 F         138.4972  145.4210  165.9162 F       1  UNL1       -0.1659
     22 F         140.2211  145.0942  164.7241 F       1  UNL1       -0.1659
     23 F         137.4409  143.9689  164.7866 F       1  UNL1       -0.1659
     24 N         139.2625  143.7936  159.6301 N.2     1  UNL1       -0.2438
     25 C         140.4187  144.5080  158.9953 C.2     1  UNL1        0.0990
     26 C         140.3005  145.0284  157.5934 C.ar    1  UNL1        0.0252
     27 C         140.6870  144.1574  156.4350 C.ar    1  UNL1        0.0020
     28 C         140.5689  144.6778  155.0332 C.ar    1  UNL1        0.0064
     29 C         140.0642  146.0692  154.7897 C.ar    1  UNL1        0.0753
     30 C         139.6777  146.9403  155.9481 C.ar    1  UNL1        0.2901
     31 C         139.7959  146.4198  157.3500 C.ar    1  UNL1        0.0768
     32 N         139.1730  148.3316  155.7047 N.pl3   1  UNL1        0.0809
     33 O         138.4546  149.0703  156.7948 O.2     1  UNL1        0.0415
     34 O         139.3868  148.9844  154.3712 O.co2   1  UNL1       -0.5760
@<TRIPOS>UNITY_ATOM_ATTR
32 1
charge 1
34 1
charge -1
@<TRIPOS>BOND
     1    18    19    1
     2    18    17    1
     3    17    11    1
     4    11    12    1
     5    12    13    2
     6    13    14    1
     7    14     1    1
     8     1     2   ar
     9     2     3   ar
    10     3     4   ar
    11     4     5   ar
    12     5     6   ar
    13     6    20    1
    14    20    21    1
    15    20    22    1
    16    20    23    1
    17     6     7   ar
    18     7     8   ar
    19     8    24    1
    20    24    25    2
    21    25    26    1
    22    26    27   ar
    23    27    28   ar
    24    28    29   ar
    25    29    30   ar
    26    30    32    1
    27    32    33    2
    28    32    34    1
    29    30    31   ar
    30     8     9   ar
    31     9    10   ar
    32    14    15    1
    33    15    16    2
    34    16    11    1
    35    10     1   ar
    36     9     4   ar
    37    31    26   ar
@<TRIPOS>MOLECULE
*****
 34 37 0 0 0
SMALL
GASTEIGER

@<TRIPOS>ATOM
      1 C         139.4402  143.0997  160.2645 C.ar    1  UNL1        0.0750
      2 C         139.2405  143.7881  161.5821 C.ar    1  UNL1        0.1139
      3 N         139.0136  142.9787  162.8244 N.ar    1  UNL1       -0.2425
      4 C         138.9864  141.4808  162.7490 C.ar    1  UNL1        0.0828
      5 C         138.7594  140.6714  163.9914 C.ar    1  UNL1        0.0230
      6 C         138.7323  139.1735  163.9161 C.ar    1  UNL1        0.0744
      7 C         138.9321  138.4851  162.5984 C.ar    1  UNL1        0.0230
      8 C         139.1590  139.2945  161.3561 C.ar    1  UNL1        0.0827
      9 C         139.1862  140.7924  161.4314 C.ar    1  UNL1        0.0366
     10 C         139.4131  141.6018  160.1892 C.ar    1  UNL1        0.0197
     11 N         140.1211  145.5279  156.5374 N.pl3   1  UNL1       -0.2801
     12 C         140.5921  146.0435  157.8649 C.2     1  UNL1        0.0822
     13 C         140.3651  145.2341  159.1073 C.2     1  UNL1        0.0859
     14 N         139.6672  143.9091  159.0221 N.pl3   1  UNL1       -0.2597
     15 C         139.1962  143.3935  157.6946 C.2     1  UNL1        0.0859
     16 C         139.4231  144.2028  156.4523 C.2     1  UNL1        0.0822
     17 C         140.3480  146.3372  155.2951 C.3     1  UNL1        0.1312
     18 C         139.6821  147.6720  155.1376 C.3     1  UNL1        0.2038
     19 O         139.0162  149.0069  154.9800 O.3     1  UNL1       -0.2185
     20 C         138.5053  138.3641  165.1583 C.3     1  UNL1        0.4187
     21 F         138.2784  137.5546  166.4007 F       1  UNL1       -0.1659
     22 F         139.2535  137.2166  164.5473 F       1  UNL1       -0.1659
     23 F         137.7572  139.5116  165.7694 F       1  UNL1       -0.1659
     24 N         139.3588  138.6061  160.0385 N.2     1  UNL1       -0.2438
     25 C         140.7008  138.6418  159.3695 C.2     1  UNL1        0.0990
     26 C         140.9006  137.9533  158.0519 C.ar    1  UNL1        0.0252
     27 C         139.7265  137.6968  157.1541 C.ar    1  UNL1        0.0020
     28 C         139.9262  137.0083  155.8365 C.ar    1  UNL1        0.0064
     29 C         141.3000  136.5764  155.4166 C.ar    1  UNL1        0.0753
     30 C         142.4740  136.8329  156.3143 C.ar    1  UNL1        0.2901
     31 C         142.2742  137.5214  157.6320 C.ar    1  UNL1        0.0768
     32 N         143.8477  136.4009  155.8944 N.pl3   1  UNL1        0.0809
     33 O         144.1666  134.9414  155.7599 O.2     1  UNL1        0.0415
     34 O         144.9024  137.4285  155.6090 O.co2   1  UNL1       -0.5760
@<TRIPOS>UNITY_ATOM_ATTR
32 1
charge 1
34 1
charge -1
@<TRIPOS>BOND
     1    18    19    1
     2    18    17    1
     3    17    11    1
     4    11    12    1
     5    12    13    2
     6    13    14    1
     7    14     1    1
     8     1     2   ar
     9     2     3   ar
    10     3     4   ar
    11     4     5   ar
    12     5     6   ar
    13     6    20    1
    14    20    21    1
    15    20    22    1
    16    20    23    1
    17     6     7   ar
    18     7     8   ar
    19     8    24    1
    20    24    25    2
    21    25    26    1
    22    26    27   ar
    23    27    28   ar
    24    28    29   ar
    25    29    30   ar
    26    30    32    1
    27    32    33    2
    28    32    34    1
    29    30    31   ar
    30     8     9   ar
    31     9    10   ar
    32    14    15    1
    33    15    16    2
    34    16    11    1
    35    10     1   ar
    36     9     4   ar
    37    31    26   ar
@<TRIPOS>MOLECULE
*****
 34 37 0 0 0
SMALL
GASTEIGER

@<TRIPOS>ATOM
      1 C         141.1285  136.2049  155.7511 C.ar    1  UNL1        0.0750
      2 C         140.5765  136.4821  154.3842 C.ar    1  UNL1        0.1139
      3 N         139.6618  137.6510  154.1676 N.ar    1  UNL1       -0.2425
      4 C         139.2991  138.5427  155.3180 C.ar    1  UNL1        0.0828
      5 C         138.3843  139.7116  155.1014 C.ar    1  UNL1        0.0230
      6 C         138.0216  140.6033  156.2517 C.ar    1  UNL1        0.0744
      7 C         138.5736  140.3261  157.6187 C.ar    1  UNL1        0.0230
      8 C         139.4883  139.1572  157.8352 C.ar    1  UNL1        0.0827
      9 C         139.8510  138.2655  156.6849 C.ar    1  UNL1        0.0366
     10 C         140.7658  137.0966  156.9014 C.ar    1  UNL1        0.0197
     11 N         143.8727  132.6981  156.4008 N.pl3   1  UNL1       -0.2801
     12 C         144.0050  133.9226  157.2570 C.2     1  UNL1        0.0822
     13 C         143.0902  135.0916  157.0404 C.2     1  UNL1        0.0859
     14 N         142.0433  135.0359  155.9677 N.pl3   1  UNL1       -0.2597
     15 C         141.9111  133.8114  155.1115 C.2     1  UNL1        0.0859
     16 C         142.8258  132.6425  155.3280 C.2     1  UNL1        0.0822
     17 C         144.7874  131.5292  156.6174 C.3     1  UNL1        0.1312
     18 C         144.4972  130.5418  157.7086 C.3     1  UNL1        0.2038
     19 O         144.2069  129.5544  158.7999 O.3     1  UNL1       -0.2185
     20 C         137.1068  141.7722  156.0352 C.3     1  UNL1        0.4187
     21 F         136.1921  142.9412  155.8186 F       1  UNL1       -0.1659
     22 F         138.1588  142.4409  155.2009 F       1  UNL1       -0.1659
     23 F         136.0549  141.1035  156.8695 F       1  UNL1       -0.1659
     24 N         140.0403  138.8799  159.2021 N.2     1  UNL1       -0.2438
     25 C         139.1167  138.4976  160.3206 C.2     1  UNL1        0.0990
     26 C         139.6688  138.2204  161.6875 C.ar    1  UNL1        0.0252
     27 C         141.1088  137.8334  161.8505 C.ar    1  UNL1        0.0020
     28 C         141.6609  137.5562  163.2173 C.ar    1  UNL1        0.0064
     29 C         140.7729  137.6659  164.4213 C.ar    1  UNL1        0.0753
     30 C         139.3328  138.0529  164.2583 C.ar    1  UNL1        0.2901
     31 C         138.7808  138.3301  162.8914 C.ar    1  UNL1        0.0768
     32 N         138.4448  138.1626  165.4622 N.pl3   1  UNL1        0.0809
     33 O         138.0022  139.5112  165.9473 O.2     1  UNL1        0.0415
     34 O         137.9995  136.9237  166.1810 O.co2   1  UNL1       -0.5760
@<TRIPOS>UNITY_ATOM_ATTR
32 1
charge 1
34 1
charge -1
@<TRIPOS>BOND
     1    18    19    1
     2    18    17    1
     3    17    11    1
     4    11    12    1
     5    12    13    2
     6    13    14    1
     7    14     1    1
     8     1     2   ar
     9     2     3   ar
    10     3     4   ar
    11     4     5   ar
    12     5     6   ar
    13     6    20    1
    14    20    21    1
    15    20    22    1
    16    20    23    1
    17     6     7   ar
    18     7     8   ar
    19     8    24    1
    20    24    25    2
    21    25    26    1
    22    26    27   ar
    23    27    28   ar
    24    28    29   ar
    25    29    30   ar
    26    30    32    1
    27    32    33    2
    28    32    34    1
    29    30    31   ar
    30     8     9   ar
    31     9    10   ar
    32    14    15    1
    33    15    16    2
    34    16    11    1
    35    10     1   ar
    36     9     4   ar
    37    31    26   ar
@<TRIPOS>MOLECULE
*****
 34 37 0 0 0
SMALL
GASTEIGER

@<TRIPOS>ATOM
      1 C         142.7163  140.3968  160.6282 C.ar    1  UNL1        0.0750
      2 C         143.3714  141.6829  161.0365 C.ar    1  UNL1        0.1139
      3 N         144.3120  142.3768  160.0965 N.ar    1  UNL1       -0.2425
      4 C         144.5977  141.7845  158.7483 C.ar    1  UNL1        0.0828
      5 C         145.5384  142.4785  157.8083 C.ar    1  UNL1        0.0230
      6 C         145.8241  141.8862  156.4601 C.ar    1  UNL1        0.0744
      7 C         145.1690  140.6000  156.0519 C.ar    1  UNL1        0.0230
      8 C         144.2283  139.9061  156.9919 C.ar    1  UNL1        0.0827
      9 C         143.9426  140.4984  158.3401 C.ar    1  UNL1        0.0366
     10 C         143.0020  139.8045  159.2800 C.ar    1  UNL1        0.0197
     11 N         139.8941  138.3149  163.4482 N.pl3   1  UNL1       -0.2801
     12 C         139.6642  139.7511  163.0815 C.2     1  UNL1        0.0822
     13 C         140.6049  140.4451  162.1415 C.2     1  UNL1        0.0859
     14 N         141.7756  139.7028  161.5682 N.pl3   1  UNL1       -0.2597
     15 C         142.0055  138.2666  161.9349 C.2     1  UNL1        0.0859
     16 C         141.0648  137.5727  162.8748 C.2     1  UNL1        0.0822
     17 C         138.9535  137.6210  164.3881 C.3     1  UNL1        0.1312
     18 C         138.5209  138.3003  165.6535 C.3     1  UNL1        0.2038
     19 O         138.0883  138.9796  166.9190 O.3     1  UNL1       -0.2185
     20 C         146.7648  142.5801  155.5201 C.3     1  UNL1        0.4187
     21 F         147.7055  143.2740  154.5801 F       1  UNL1       -0.1659
     22 F         146.1381  141.8612  154.3624 F       1  UNL1       -0.1659
     23 F         147.3914  143.2990  156.6779 F       1  UNL1       -0.1659
     24 N         143.5732  138.6200  156.5837 N.2     1  UNL1       -0.2438
     25 C         144.1613  137.7975  155.4756 C.2     1  UNL1        0.0990
     26 C         143.5061  136.5113  155.0674 C.ar    1  UNL1        0.0252
     27 C         142.5228  136.4969  153.9348 C.ar    1  UNL1        0.0020
     28 C         141.8677  135.2108  153.5266 C.ar    1  UNL1        0.0064
     29 C         142.1959  133.9389  154.2510 C.ar    1  UNL1        0.0753
     30 C         143.1792  133.9533  155.3836 C.ar    1  UNL1        0.2901
     31 C         143.8344  135.2395  155.7918 C.ar    1  UNL1        0.0768
     32 N         143.5075  132.6815  156.1080 N.pl3   1  UNL1        0.0809
     33 O         142.6579  132.2341  157.2604 O.2     1  UNL1        0.0415
     34 O         144.6853  131.8572  155.6800 O.co2   1  UNL1       -0.5760
@<TRIPOS>UNITY_ATOM_ATTR
32 1
charge 1
34 1
charge -1
@<TRIPOS>BOND
     1    18    19    1
     2    18    17    1
     3    17    11    1
     4    11    12    1
     5    12    13    2
     6    13    14    1
     7    14     1    1
     8     1     2   ar
     9     2     3   ar
    10     3     4   ar
    11     4     5   ar
    12     5     6   ar
    13     6    20    1
    14    20    21    1
    15    20    22    1
    16    20    23    1
    17     6     7   ar
    18     7     8   ar
    19     8    24    1
    20    24    25    2
    21    25    26    1
    22    26    27   ar
    23    27    28   ar
    24    28    29   ar
    25    29    30   ar
    26    30    32    1
    27    32    33    2
    28    32    34    1
    29    30    31   ar
    30     8     9   ar
    31     9    10   ar
    32    14    15    1
    33    15    16    2
    34    16    11    1
    35    10     1   ar
    36     9     4   ar
    37    31    26   ar
@<TRIPOS>MOLECULE
*****
 34 37 0 0 0
SMALL
GASTEIGER

@<TRIPOS>ATOM
      1 C         140.5108  139.6171  160.3540 C.ar    1  UNL1        0.0750
      2 C         140.4903  139.0528  161.7437 C.ar    1  UNL1        0.1139
      3 N         140.1434  139.9348  162.9062 N.ar    1  UNL1       -0.2425
      4 C         139.8171  141.3812  162.6792 C.ar    1  UNL1        0.0828
      5 C         139.4702  142.2633  163.8418 C.ar    1  UNL1        0.0230
      6 C         139.1438  143.7096  163.6148 C.ar    1  UNL1        0.0744
      7 C         139.1644  144.2739  162.2250 C.ar    1  UNL1        0.0230
      8 C         139.5112  143.3918  161.0625 C.ar    1  UNL1        0.0827
      9 C         139.8376  141.9455  161.2895 C.ar    1  UNL1        0.0366
     10 C         140.1845  141.0634  160.1270 C.ar    1  UNL1        0.0197
     11 N         141.5514  136.9709  156.8661 N.pl3   1  UNL1       -0.2801
     12 C         142.5921  137.2988  157.8954 C.2     1  UNL1        0.0822
     13 C         142.2452  138.1809  159.0581 C.2     1  UNL1        0.0859
     14 N         140.8577  138.7350  159.1914 N.pl3   1  UNL1       -0.2597
     15 C         139.8170  138.4071  158.1621 C.2     1  UNL1        0.0859
     16 C         140.1639  137.5250  156.9995 C.2     1  UNL1        0.0822
     17 C         141.8982  136.0889  155.7035 C.3     1  UNL1        0.1312
     18 C         142.4410  134.7112  155.9430 C.3     1  UNL1        0.2038
     19 O         142.9837  133.3335  156.1826 O.3     1  UNL1       -0.2185
     20 C         138.7969  144.5917  164.7773 C.3     1  UNL1        0.4187
     21 F         138.4501  145.4738  165.9399 F       1  UNL1       -0.1659
     22 F         140.2065  145.1034  164.8096 F       1  UNL1       -0.1659
     23 F         137.3873  144.0799  164.7450 F       1  UNL1       -0.1659
     24 N         139.5318  143.9561  159.6728 N.2     1  UNL1       -0.2438
     25 C         140.6773  144.8173  159.2299 C.2     1  UNL1        0.0990
     26 C         140.6978  145.3816  157.8402 C.ar    1  UNL1        0.0252
     27 C         139.6902  146.4167  157.4361 C.ar    1  UNL1        0.0020
     28 C         139.7106  146.9810  156.0465 C.ar    1  UNL1        0.0064
     29 C         140.7387  146.5102  155.0608 C.ar    1  UNL1        0.0753
     30 C         141.7463  145.4750  155.4649 C.ar    1  UNL1        0.2901
     31 C         141.7258  144.9107  156.8546 C.ar    1  UNL1        0.0768
     32 N         142.7743  145.0042  154.4793 N.pl3   1  UNL1        0.0809
     33 O         142.9566  145.7318  153.1803 O.2     1  UNL1        0.0415
     34 O         143.6200  143.8056  154.7926 O.co2   1  UNL1       -0.5760
@<TRIPOS>UNITY_ATOM_ATTR
32 1
charge 1
34 1
charge -1
@<TRIPOS>BOND
     1    18    19    1
     2    18    17    1
     3    17    11    1
     4    11    12    1
     5    12    13    2
     6    13    14    1
     7    14     1    1
     8     1     2   ar
     9     2     3   ar
    10     3     4   ar
    11     4     5   ar
    12     5     6   ar
    13     6    20    1
    14    20    21    1
    15    20    22    1
    16    20    23    1
    17     6     7   ar
    18     7     8   ar
    19     8    24    1
    20    24    25    2
    21    25    26    1
    22    26    27   ar
    23    27    28   ar
    24    28    29   ar
    25    29    30   ar
    26    30    32    1
    27    32    33    2
    28    32    34    1
    29    30    31   ar
    30     8     9   ar
    31     9    10   ar
    32    14    15    1
    33    15    16    2
    34    16    11    1
    35    10     1   ar
    36     9     4   ar
    37    31    26   ar
@<TRIPOS>MOLECULE
*****
 34 37 0 0 0
SMALL
GASTEIGER

@<TRIPOS>ATOM
      1 C         139.3709  143.0214  160.5436 C.ar    1  UNL1        0.0750
      2 C         139.0442  143.7223  161.8288 C.ar    1  UNL1        0.1139
      3 N         138.7853  142.9254  163.0729 N.ar    1  UNL1       -0.2425
      4 C         138.8530  141.4275  163.0317 C.ar    1  UNL1        0.0828
      5 C         138.5940  140.6306  164.2759 C.ar    1  UNL1        0.0230
      6 C         138.6616  139.1326  164.2347 C.ar    1  UNL1        0.0744
      7 C         138.9883  138.4317  162.9494 C.ar    1  UNL1        0.0230
      8 C         139.2473  139.2286  161.7053 C.ar    1  UNL1        0.0827
      9 C         139.1796  140.7265  161.7465 C.ar    1  UNL1        0.0366
     10 C         139.4386  141.5235  160.5024 C.ar    1  UNL1        0.0197
     11 N         140.1478  145.4121  156.8111 N.pl3   1  UNL1       -0.2801
     12 C         140.6292  145.9171  158.1390 C.2     1  UNL1        0.0822
     13 C         140.3702  145.1202  159.3831 C.2     1  UNL1        0.0859
     14 N         139.6299  143.8183  159.2994 N.pl3   1  UNL1       -0.2597
     15 C         139.1485  143.3133  157.9715 C.2     1  UNL1        0.0859
     16 C         139.4074  144.1102  156.7274 C.2     1  UNL1        0.0822
     17 C         140.4067  146.2090  155.5670 C.3     1  UNL1        0.1312
     18 C         140.4820  145.5196  154.2369 C.3     1  UNL1        0.2038
     19 O         140.5573  144.8303  152.9068 O.3     1  UNL1       -0.2185
     20 C         138.4027  138.3357  165.4788 C.3     1  UNL1        0.4187
     21 F         138.1437  137.5387  166.7229 F       1  UNL1       -0.1659
     22 F         139.1914  137.1931  164.9111 F       1  UNL1       -0.1659
     23 F         137.6139  139.4783  166.0465 F       1  UNL1       -0.1659
     24 N         139.5739  138.5277  160.4201 N.2     1  UNL1       -0.2438
     25 C         140.9028  138.7505  159.7609 C.2     1  UNL1        0.0990
     26 C         141.2294  138.0495  158.4756 C.ar    1  UNL1        0.0252
     27 C         142.6269  137.5696  158.2172 C.ar    1  UNL1        0.0020
     28 C         142.9535  136.8686  156.9319 C.ar    1  UNL1        0.0064
     29 C         141.8826  136.6474  155.9051 C.ar    1  UNL1        0.0753
     30 C         140.4852  137.1273  156.1635 C.ar    1  UNL1        0.2901
     31 C         140.1585  137.8283  157.4488 C.ar    1  UNL1        0.0768
     32 N         139.4143  136.9061  155.1367 N.pl3   1  UNL1        0.0809
     33 O         137.9774  137.1591  155.4851 O.2     1  UNL1        0.0415
     34 O         139.7803  136.4320  153.7615 O.co2   1  UNL1       -0.5760
@<TRIPOS>UNITY_ATOM_ATTR
32 1
charge 1
34 1
charge -1
@<TRIPOS>BOND
     1    18    19    1
     2    18    17    1
     3    17    11    1
     4    11    12    1
     5    12    13    2
     6    13    14    1
     7    14     1    1
     8     1     2   ar
     9     2     3   ar
    10     3     4   ar
    11     4     5   ar
    12     5     6   ar
    13     6    20    1
    14    20    21    1
    15    20    22    1
    16    20    23    1
    17     6     7   ar
    18     7     8   ar
    19     8    24    1
    20    24    25    2
    21    25    26    1
    22    26    27   ar
    23    27    28   ar
    24    28    29   ar
    25    29    30   ar
    26    30    32    1
    27    32    33    2
    28    32    34    1
    29    30    31   ar
    30     8     9   ar
    31     9    10   ar
    32    14    15    1
    33    15    16    2
    34    16    11    1
    35    10     1   ar
    36     9     4   ar
    37    31    26   ar
@<TRIPOS>MOLECULE
*****
 34 37 0 0 0
SMALL
GASTEIGER

@<TRIPOS>ATOM
      1 C         142.0869  143.7438  159.5625 C.ar    1  UNL1        0.0750
      2 C         142.0229  144.3861  160.9165 C.ar    1  UNL1        0.1139
      3 N         142.4708  143.6254  162.1293 N.ar    1  UNL1       -0.2425
      4 C         142.9826  142.2225  161.9880 C.ar    1  UNL1        0.0828
      5 C         143.4304  141.4619  163.2008 C.ar    1  UNL1        0.0230
      6 C         143.9422  140.0590  163.0596 C.ar    1  UNL1        0.0744
      7 C         144.0061  139.4167  161.7055 C.ar    1  UNL1        0.0230
      8 C         143.5582  140.1774  160.4927 C.ar    1  UNL1        0.0827
      9 C         143.0465  141.5803  160.6340 C.ar    1  UNL1        0.0366
     10 C         142.5986  142.3409  159.4213 C.ar    1  UNL1        0.0197
     11 N         140.7434  146.0257  155.9240 N.pl3   1  UNL1       -0.2801
     12 C         140.0612  146.2460  157.2417 C.2     1  UNL1        0.0822
     13 C         140.5090  145.4853  158.4545 C.2     1  UNL1        0.0859
     14 N         141.6390  144.5045  158.3497 N.pl3   1  UNL1       -0.2597
     15 C         142.3212  144.2842  157.0321 C.2     1  UNL1        0.0859
     16 C         141.8734  145.0448  155.8193 C.2     1  UNL1        0.0822
     17 C         140.2956  146.7863  154.7112 C.3     1  UNL1        0.1312
     18 C         139.6308  148.1219  154.8668 C.3     1  UNL1        0.2038
     19 O         138.9659  149.4576  155.0223 O.3     1  UNL1       -0.2185
     20 C         144.3900  139.2983  164.2723 C.3     1  UNL1        0.4187
     21 F         144.8379  138.5376  165.4851 F       1  UNL1       -0.1659
     22 F         143.2122  138.3802  164.1314 F       1  UNL1       -0.1659
     23 F         145.5678  140.2164  164.4132 F       1  UNL1       -0.1659
     24 N         143.6222  139.5351  159.1387 N.2     1  UNL1       -0.2438
     25 C         142.8319  138.2908  158.8608 C.2     1  UNL1        0.0990
     26 C         142.8959  137.6486  157.5067 C.ar    1  UNL1        0.0252
     27 C         143.0285  138.4995  156.2785 C.ar    1  UNL1        0.0020
     28 C         143.0924  137.8573  154.9245 C.ar    1  UNL1        0.0064
     29 C         143.0238  136.3641  154.7985 C.ar    1  UNL1        0.0753
     30 C         142.8913  135.5132  156.0267 C.ar    1  UNL1        0.2901
     31 C         142.8273  136.1555  157.3808 C.ar    1  UNL1        0.0768
     32 N         142.8226  134.0201  155.9008 N.pl3   1  UNL1        0.0809
     33 O         142.9386  133.3751  154.5515 O.2     1  UNL1        0.0415
     34 O         142.6381  133.1720  157.1241 O.co2   1  UNL1       -0.5760
@<TRIPOS>UNITY_ATOM_ATTR
32 1
charge 1
34 1
charge -1
@<TRIPOS>BOND
     1    18    19    1
     2    18    17    1
     3    17    11    1
     4    11    12    1
     5    12    13    2
     6    13    14    1
     7    14     1    1
     8     1     2   ar
     9     2     3   ar
    10     3     4   ar
    11     4     5   ar
    12     5     6   ar
    13     6    20    1
    14    20    21    1
    15    20    22    1
    16    20    23    1
    17     6     7   ar
    18     7     8   ar
    19     8    24    1
    20    24    25    2
    21    25    26    1
    22    26    27   ar
    23    27    28   ar
    24    28    29   ar
    25    29    30   ar
    26    30    32    1
    27    32    33    2
    28    32    34    1
    29    30    31   ar
    30     8     9   ar
    31     9    10   ar
    32    14    15    1
    33    15    16    2
    34    16    11    1
    35    10     1   ar
    36     9     4   ar
    37    31    26   ar
@<TRIPOS>MOLECULE
*****
 34 37 0 0 0
SMALL
GASTEIGER

@<TRIPOS>ATOM
      1 C         139.7462  143.4925  162.1570 C.ar    1  UNL1        0.0750
      2 C         139.6983  144.9808  162.3374 C.ar    1  UNL1        0.1139
      3 N         139.8212  145.8849  161.1468 N.ar    1  UNL1       -0.2425
      4 C         139.9920  145.3007  159.7759 C.ar    1  UNL1        0.0828
      5 C         140.1149  146.2049  158.5853 C.ar    1  UNL1        0.0230
      6 C         140.2858  145.6207  157.2144 C.ar    1  UNL1        0.0744
      7 C         140.3337  144.1323  157.0340 C.ar    1  UNL1        0.0230
      8 C         140.2108  143.2282  158.2245 C.ar    1  UNL1        0.0827
      9 C         140.0400  143.8124  159.5955 C.ar    1  UNL1        0.0366
     10 C         139.9171  142.9083  160.7860 C.ar    1  UNL1        0.0197
     11 N         139.3774  140.7800  165.7287 N.pl3   1  UNL1       -0.2801
     12 C         140.4182  141.8600  165.7114 C.2     1  UNL1        0.0822
     13 C         140.5411  142.7642  164.5208 C.2     1  UNL1        0.0859
     14 N         139.6233  142.5883  163.3476 N.pl3   1  UNL1       -0.2597
     15 C         138.5825  141.5083  163.3648 C.2     1  UNL1        0.0859
     16 C         138.4596  140.6041  164.5553 C.2     1  UNL1        0.0822
     17 C         139.2545  139.8758  166.9192 C.3     1  UNL1        0.1312
     18 C         138.1233  138.8943  167.0018 C.3     1  UNL1        0.2038
     19 O         136.9919  137.9128  167.0845 O.3     1  UNL1       -0.2185
     20 C         140.4087  146.5248  156.0238 C.3     1  UNL1        0.4187
     21 F         140.5317  147.4289  154.8332 F       1  UNL1       -0.1659
     22 F         141.6920  145.8482  155.6425 F       1  UNL1       -0.1659
     23 F         139.1254  147.2013  156.4051 F       1  UNL1       -0.1659
     24 N         140.2588  141.7399  158.0442 N.2     1  UNL1       -0.2438
     25 C         141.1198  141.1417  156.9714 C.2     1  UNL1        0.0990
     26 C         141.1677  139.6533  156.7910 C.ar    1  UNL1        0.0252
     27 C         139.9120  138.8422  156.9138 C.ar    1  UNL1        0.0020
     28 C         139.9598  137.3539  156.7335 C.ar    1  UNL1        0.0064
     29 C         141.2635  136.6766  156.4303 C.ar    1  UNL1        0.0753
     30 C         142.5193  137.4878  156.3075 C.ar    1  UNL1        0.2901
     31 C         142.4714  138.9762  156.4878 C.ar    1  UNL1        0.0768
     32 N         143.8229  136.8106  156.0043 N.pl3   1  UNL1        0.0809
     33 O         144.9837  137.6122  155.4944 O.2     1  UNL1        0.0415
     34 O         143.9658  135.3319  156.2111 O.co2   1  UNL1       -0.5760
@<TRIPOS>UNITY_ATOM_ATTR
32 1
charge 1
34 1
charge -1
@<TRIPOS>BOND
     1    18    19    1
     2    18    17    1
     3    17    11    1
     4    11    12    1
     5    12    13    2
     6    13    14    1
     7    14     1    1
     8     1     2   ar
     9     2     3   ar
    10     3     4   ar
    11     4     5   ar
    12     5     6   ar
    13     6    20    1
    14    20    21    1
    15    20    22    1
    16    20    23    1
    17     6     7   ar
    18     7     8   ar
    19     8    24    1
    20    24    25    2
    21    25    26    1
    22    26    27   ar
    23    27    28   ar
    24    28    29   ar
    25    29    30   ar
    26    30    32    1
    27    32    33    2
    28    32    34    1
    29    30    31   ar
    30     8     9   ar
    31     9    10   ar
    32    14    15    1
    33    15    16    2
    34    16    11    1
    35    10     1   ar
    36     9     4   ar
    37    31    26   ar
@<TRIPOS>MOLECULE
*****
 34 37 0 0 0
SMALL
GASTEIGER

@<TRIPOS>ATOM
      1 C         141.0656  143.1180  160.6075 C.ar    1  UNL1        0.0750
      2 C         141.0584  143.8056  161.9405 C.ar    1  UNL1        0.1139
      3 N         141.5354  143.0780  163.1623 N.ar    1  UNL1       -0.2425
      4 C         142.0196  141.6626  163.0512 C.ar    1  UNL1        0.0828
      5 C         142.4965  140.9349  164.2731 C.ar    1  UNL1        0.0230
      6 C         142.9807  139.5196  164.1619 C.ar    1  UNL1        0.0744
      7 C         142.9879  138.8319  162.8288 C.ar    1  UNL1        0.0230
      8 C         142.5110  139.5596  161.6069 C.ar    1  UNL1        0.0827
      9 C         142.0268  140.9750  161.7181 C.ar    1  UNL1        0.0366
     10 C         141.5498  141.7026  160.4963 C.ar    1  UNL1        0.0197
     11 N         139.6347  145.3009  156.9417 N.pl3   1  UNL1       -0.2801
     12 C         140.3788  146.0416  158.0130 C.2     1  UNL1        0.0822
     13 C         140.8558  145.3139  159.2349 C.2     1  UNL1        0.0859
     14 N         140.5887  143.8457  159.3855 N.pl3   1  UNL1       -0.2597
     15 C         139.8445  143.1050  158.3142 C.2     1  UNL1        0.0859
     16 C         139.3676  143.8326  157.0924 C.2     1  UNL1        0.0822
     17 C         139.1577  146.0285  155.7198 C.3     1  UNL1        0.1312
     18 C         138.9335  147.5108  155.7694 C.3     1  UNL1        0.2038
     19 O         138.7091  148.9932  155.8189 O.3     1  UNL1       -0.2185
     20 C         143.4577  138.7919  165.3837 C.3     1  UNL1        0.4187
     21 F         143.9346  138.0642  166.6057 F       1  UNL1       -0.1659
     22 F         142.0383  138.6281  165.8402 F       1  UNL1       -0.1659
     23 F         144.8771  138.9558  164.9272 F       1  UNL1       -0.1659
     24 N         142.5182  138.8720  160.2739 N.2     1  UNL1       -0.2438
     25 C         141.2284  138.6320  159.5468 C.2     1  UNL1        0.0990
     26 C         141.2357  137.9442  158.2137 C.ar    1  UNL1        0.0252
     27 C         139.9598  137.7969  157.4388 C.ar    1  UNL1        0.0020
     28 C         139.9670  137.1092  156.1058 C.ar    1  UNL1        0.0064
     29 C         141.2502  136.5689  155.5475 C.ar    1  UNL1        0.0753
     30 C         142.5261  136.7163  156.3224 C.ar    1  UNL1        0.2901
     31 C         142.5188  137.4040  157.6555 C.ar    1  UNL1        0.0768
     32 N         143.8092  136.1760  155.7642 N.pl3   1  UNL1        0.0809
     33 O         144.9466  137.1063  155.4627 O.2     1  UNL1        0.0415
     34 O         143.9550  134.7053  155.5074 O.co2   1  UNL1       -0.5760
@<TRIPOS>UNITY_ATOM_ATTR
32 1
charge 1
34 1
charge -1
@<TRIPOS>BOND
     1    18    19    1
     2    18    17    1
     3    17    11    1
     4    11    12    1
     5    12    13    2
     6    13    14    1
     7    14     1    1
     8     1     2   ar
     9     2     3   ar
    10     3     4   ar
    11     4     5   ar
    12     5     6   ar
    13     6    20    1
    14    20    21    1
    15    20    22    1
    16    20    23    1
    17     6     7   ar
    18     7     8   ar
    19     8    24    1
    20    24    25    2
    21    25    26    1
    22    26    27   ar
    23    27    28   ar
    24    28    29   ar
    25    29    30   ar
    26    30    32    1
    27    32    33    2
    28    32    34    1
    29    30    31   ar
    30     8     9   ar
    31     9    10   ar
    32    14    15    1
    33    15    16    2
    34    16    11    1
    35    10     1   ar
    36     9     4   ar
    37    31    26   ar
