@<TRIPOS>MOLECULE
*****
 41 44 0 0 0
SMALL
GASTEIGER

@<TRIPOS>ATOM
      1 N         139.2484  139.9011  160.5118 N.3     1  UNL1       -0.2725
      2 C         140.3938  140.4667  159.7258 C.3     1  UNL1        0.0738
      3 C         139.9095  140.7415  158.3330 C.3     1  UNL1        0.0383
      4 C         138.4646  140.3456  158.2582 C.3     1  UNL1        0.0889
      5 C         138.0560  139.8263  159.6047 C.3     1  UNL1        0.0919
      6 C         139.3675  138.6483  164.8322 C.3     1  UNL1        0.1085
      7 O         139.0151  137.4757  165.6988 O.3     1  UNL1       -0.3826
      8 C         139.8635  140.0059  164.4311 C.3     1  UNL1        0.0326
      9 C         139.8238  140.4235  162.9909 C.3     1  UNL1        0.0187
     10 C         139.2881  139.4836  161.9519 C.3     1  UNL1        0.0577
     11 C         138.7922  138.1260  162.3531 C.3     1  UNL1        0.0187
     12 C         138.8319  137.7083  163.7933 C.3     1  UNL1        0.0326
     13 H         139.2329  137.6789  166.6219 H       1  UNL1        0.2107
     14 C         140.6074  140.2466  168.8520 C.ar    1  UNL1        0.2248
     15 C         141.6213  140.1057  167.7556 C.ar    1  UNL1        0.0575
     16 C         141.2081  139.5729  166.4157 C.ar    1  UNL1        0.0043
     17 C         139.7808  139.1810  166.1721 C.ar    1  UNL1        0.0211
     18 C         138.7669  139.3220  167.2685 C.ar    1  UNL1        0.1000
     19 N         139.1801  139.8547  168.6084 N.ar    1  UNL1       -0.2104
     20 O         141.0207  140.7793  170.1919 O.3     1  UNL1       -0.4602
     21 C         140.3721  143.2053  169.5257 C.3     1  UNL1        0.0512
     22 C         140.6641  142.1827  170.5835 C.3     1  UNL1        0.2072
     23 N         137.5832  140.4508  157.0491 N.am    1  UNL1       -0.3032
     24 C         137.0779  141.7910  156.6035 C.2     1  UNL1        0.2425
     25 O         137.4541  143.0261  157.3670 O.2     1  UNL1       -0.2733
     26 H         137.3362  139.6401  156.5480 H       1  UNL1        0.1495
     27 C         136.1964  141.8961  155.3944 C.3     1  UNL1        0.1759
     28 N         134.7055  141.8275  155.5449 N.am    1  UNL1       -0.2931
     29 C         134.0429  140.5190  155.8588 C.2     1  UNL1        0.2462
     30 O         134.8710  139.2790  156.0223 O.2     1  UNL1       -0.2701
     31 H         134.1620  142.6413  155.4376 H       1  UNL1        0.1502
     32 C         132.5520  140.4504  156.0093 C.ar    1  UNL1        0.0533
     33 C         131.6846  141.4917  155.3663 C.ar    1  UNL1        0.0045
     34 C         130.1938  141.4231  155.5168 C.ar    1  UNL1        0.0001
     35 C         129.5702  140.3133  156.3102 C.ar    1  UNL1        0.0039
     36 C         130.4377  139.2720  156.9531 C.ar    1  UNL1        0.0716
     37 C         131.9285  139.3406  156.8026 C.ar    1  UNL1        0.0084
     38 C         129.8142  138.1621  157.7466 C.3     1  UNL1        0.4186
     39 F         129.1907  137.0523  158.5399 F       1  UNL1       -0.1659
     40 F         130.9448  138.2299  158.7299 F       1  UNL1       -0.1659
     41 F         128.6835  138.0943  156.7632 F       1  UNL1       -0.1659
@<TRIPOS>BOND
     1    21    22    1
     2    22    20    1
     3    20    14    1
     4    14    15   ar
     5    15    16   ar
     6    16    17   ar
     7    17     6    1
     8     6     7    1
     9     6     8    1
    10     8     9    1
    11     9    10    1
    12    10     1    1
    13     1     2    1
    14     2     3    1
    15     3     4    1
    16     4    23    1
    17    23    24   am
    18    24    25    2
    19    24    27    1
    20    27    28    1
    21    28    29   am
    22    29    30    2
    23    29    32    1
    24    32    33   ar
    25    33    34   ar
    26    34    35   ar
    27    35    36   ar
    28    36    38    1
    29    38    39    1
    30    38    40    1
    31    38    41    1
    32    36    37   ar
    33     4     5    1
    34    10    11    1
    35    11    12    1
    36    17    18   ar
    37    18    19   ar
    38    19    14   ar
    39    12     6    1
    40     5     1    1
    41    37    32   ar
    42     7    13    1
    43    23    26    1
    44    28    31    1
@<TRIPOS>MOLECULE
*****
 41 44 0 0 0
SMALL
GASTEIGER

@<TRIPOS>ATOM
      1 N         139.5818  139.7610  159.3877 N.3     1  UNL1       -0.2725
      2 C         139.5080  140.7089  158.2276 C.3     1  UNL1        0.0738
      3 C         140.0223  139.9955  157.0125 C.3     1  UNL1        0.0383
      4 C         140.4141  138.6065  157.4217 C.3     1  UNL1        0.0889
      5 C         140.1419  138.4616  158.8896 C.3     1  UNL1        0.0919
      6 C         138.3411  140.6574  163.6193 C.3     1  UNL1        0.1085
      7 O         137.2489  141.3569  164.3729 O.3     1  UNL1       -0.3826
      8 C         139.5926  139.8740  163.3547 C.3     1  UNL1        0.0326
      9 C         140.0062  139.5752  161.9442 C.3     1  UNL1        0.0187
     10 C         139.1683  140.0597  160.7983 C.3     1  UNL1        0.0577
     11 C         137.9168  140.8432  161.0629 C.3     1  UNL1        0.0187
     12 C         137.5032  141.1420  162.4735 C.3     1  UNL1        0.0326
     13 H         137.4148  141.2829  165.3257 H       1  UNL1        0.2107
     14 C         139.7168  139.9324  167.8421 C.ar    1  UNL1        0.2248
     15 C         138.4960  139.2341  167.3207 C.ar    1  UNL1        0.0575
     16 C         138.0374  139.4757  165.9131 C.ar    1  UNL1        0.0043
     17 C         138.7996  140.4158  165.0269 C.ar    1  UNL1        0.0211
     18 C         140.0204  141.1141  165.5484 C.ar    1  UNL1        0.1000
     19 N         140.4790  140.8724  166.9560 N.ar    1  UNL1       -0.2104
     20 O         140.1753  139.6907  169.2497 O.3     1  UNL1       -0.4602
     21 C         139.6938  142.0016  170.3350 C.3     1  UNL1        0.0512
     22 C         139.6066  140.5047  170.3740 C.3     1  UNL1        0.2072
     23 N         140.9790  137.5484  156.5210 N.am    1  UNL1       -0.3032
     24 C         140.0597  136.6917  155.7020 C.2     1  UNL1        0.2425
     25 O         138.5755  136.8930  155.7837 O.2     1  UNL1       -0.2733
     26 H         141.9531  137.4162  156.4674 H       1  UNL1        0.1495
     27 C         140.6245  135.6335  154.8013 C.3     1  UNL1        0.1759
     28 N         141.2409  134.3988  155.3893 N.am    1  UNL1       -0.2931
     29 C         142.6446  134.4394  155.9163 C.2     1  UNL1        0.2462
     30 O         143.4321  135.7147  155.8554 O.2     1  UNL1       -0.2701
     31 H         140.7241  133.5618  155.4292 H       1  UNL1        0.1502
     32 C         143.2610  133.2048  156.5043 C.ar    1  UNL1        0.0533
     33 C         144.4183  133.3224  157.4512 C.ar    1  UNL1        0.0045
     34 C         145.0347  132.0877  158.0392 C.ar    1  UNL1        0.0001
     35 C         144.4938  130.7354  157.6803 C.ar    1  UNL1        0.0039
     36 C         143.3365  130.6179  156.7333 C.ar    1  UNL1        0.0716
     37 C         142.7201  131.8526  156.1454 C.ar    1  UNL1        0.0084
     38 C         142.7955  129.2656  156.3743 C.3     1  UNL1        0.4186
     39 F         142.2545  127.9135  156.0154 F       1  UNL1       -0.1659
     40 F         144.0448  128.6255  156.9029 F       1  UNL1       -0.1659
     41 F         141.5461  129.9058  155.8457 F       1  UNL1       -0.1659
@<TRIPOS>BOND
     1    21    22    1
     2    22    20    1
     3    20    14    1
     4    14    15   ar
     5    15    16   ar
     6    16    17   ar
     7    17     6    1
     8     6     7    1
     9     6     8    1
    10     8     9    1
    11     9    10    1
    12    10     1    1
    13     1     2    1
    14     2     3    1
    15     3     4    1
    16     4    23    1
    17    23    24   am
    18    24    25    2
    19    24    27    1
    20    27    28    1
    21    28    29   am
    22    29    30    2
    23    29    32    1
    24    32    33   ar
    25    33    34   ar
    26    34    35   ar
    27    35    36   ar
    28    36    38    1
    29    38    39    1
    30    38    40    1
    31    38    41    1
    32    36    37   ar
    33     4     5    1
    34    10    11    1
    35    11    12    1
    36    17    18   ar
    37    18    19   ar
    38    19    14   ar
    39    12     6    1
    40     5     1    1
    41    37    32   ar
    42     7    13    1
    43    23    26    1
    44    28    31    1
@<TRIPOS>MOLECULE
*****
 41 44 0 0 0
SMALL
GASTEIGER

@<TRIPOS>ATOM
      1 N         139.4124  139.4820  159.7289 N.3     1  UNL1       -0.2725
      2 C         138.9749  140.1457  158.4570 C.3     1  UNL1        0.0738
      3 C         139.5970  139.4056  157.3101 C.3     1  UNL1        0.0383
      4 C         140.4191  138.2845  157.8734 C.3     1  UNL1        0.0889
      5 C         140.3050  138.3317  159.3682 C.3     1  UNL1        0.0919
      6 C         138.2512  140.7237  163.8954 C.3     1  UNL1        0.1085
      7 O         137.2744  141.6200  164.5971 O.3     1  UNL1       -0.3826
      8 C         139.3614  139.7363  163.6891 C.3     1  UNL1        0.0326
      9 C         139.7485  139.3224  162.3002 C.3     1  UNL1        0.0187
     10 C         139.0254  139.8959  161.1178 C.3     1  UNL1        0.0577
     11 C         137.9152  140.8832  161.3241 C.3     1  UNL1        0.0187
     12 C         137.5281  141.2971  162.7130 C.3     1  UNL1        0.0326
     13 H         137.4065  141.5545  165.5559 H       1  UNL1        0.2107
     14 C         139.4028  139.9371  168.1739 C.ar    1  UNL1        0.2248
     15 C         140.0178  141.0857  167.4307 C.ar    1  UNL1        0.0575
     16 C         139.6340  141.3479  166.0045 C.ar    1  UNL1        0.0043
     17 C         138.6351  140.4615  165.3216 C.ar    1  UNL1        0.0211
     18 C         138.0200  139.3129  166.0648 C.ar    1  UNL1        0.1000
     19 N         138.4039  139.0507  167.4910 N.ar    1  UNL1       -0.2104
     20 O         139.7866  139.6749  169.6001 O.3     1  UNL1       -0.4602
     21 C         142.3286  139.2135  169.8750 C.3     1  UNL1        0.0512
     22 C         141.1361  140.0945  170.1028 C.3     1  UNL1        0.2072
     23 N         141.2154  137.2906  157.0809 N.am    1  UNL1       -0.3032
     24 C         142.7087  137.4128  157.0086 C.2     1  UNL1        0.2425
     25 O         143.4056  138.5288  157.7288 O.2     1  UNL1       -0.2733
     26 H         140.7580  136.5582  156.6081 H       1  UNL1        0.1495
     27 C         143.5050  136.4189  156.2160 C.3     1  UNL1        0.1759
     28 N         142.8610  135.1507  155.7397 N.am    1  UNL1       -0.2931
     29 C         143.0699  133.8731  156.4972 C.2     1  UNL1        0.2462
     30 O         143.9228  133.8635  157.7310 O.2     1  UNL1       -0.2701
     31 H         142.3012  135.1570  154.9298 H       1  UNL1        0.1502
     32 C         142.4258  132.6049  156.0208 C.ar    1  UNL1        0.0533
     33 C         141.2462  132.6642  155.0961 C.ar    1  UNL1        0.0045
     34 C         140.6022  131.3960  154.6198 C.ar    1  UNL1        0.0001
     35 C         141.1376  130.0685  155.0681 C.ar    1  UNL1        0.0039
     36 C         142.3172  130.0092  155.9927 C.ar    1  UNL1        0.0716
     37 C         142.9613  131.2774  156.4691 C.ar    1  UNL1        0.0084
     38 C         142.8528  128.6817  156.4411 C.3     1  UNL1        0.4186
     39 F         143.3883  127.3543  156.8894 F       1  UNL1       -0.1659
     40 F         141.5991  128.0134  155.9599 F       1  UNL1       -0.1659
     41 F         144.1066  129.3500  156.9223 F       1  UNL1       -0.1659
@<TRIPOS>BOND
     1    21    22    1
     2    22    20    1
     3    20    14    1
     4    14    15   ar
     5    15    16   ar
     6    16    17   ar
     7    17     6    1
     8     6     7    1
     9     6     8    1
    10     8     9    1
    11     9    10    1
    12    10     1    1
    13     1     2    1
    14     2     3    1
    15     3     4    1
    16     4    23    1
    17    23    24   am
    18    24    25    2
    19    24    27    1
    20    27    28    1
    21    28    29   am
    22    29    30    2
    23    29    32    1
    24    32    33   ar
    25    33    34   ar
    26    34    35   ar
    27    35    36   ar
    28    36    38    1
    29    38    39    1
    30    38    40    1
    31    38    41    1
    32    36    37   ar
    33     4     5    1
    34    10    11    1
    35    11    12    1
    36    17    18   ar
    37    18    19   ar
    38    19    14   ar
    39    12     6    1
    40     5     1    1
    41    37    32   ar
    42     7    13    1
    43    23    26    1
    44    28    31    1
@<TRIPOS>MOLECULE
*****
 41 44 0 0 0
SMALL
GASTEIGER

@<TRIPOS>ATOM
      1 N         140.2850  139.6125  160.5728 N.3     1  UNL1       -0.2725
      2 C         140.1826  140.9784  159.9617 C.3     1  UNL1        0.0738
      3 C         140.6629  140.8891  158.5436 C.3     1  UNL1        0.0383
      4 C         141.0622  139.4677  158.2781 C.3     1  UNL1        0.0889
      5 C         140.8286  138.6788  159.5322 C.3     1  UNL1        0.0919
      6 C         139.1590  138.5087  164.7875 C.3     1  UNL1        0.1085
      7 O         138.5141  137.3886  165.5487 O.3     1  UNL1       -0.3826
      8 C         139.8282  139.8220  164.5095 C.3     1  UNL1        0.0326
      9 C         140.2035  140.1900  163.1046 C.3     1  UNL1        0.0187
     10 C         139.9097  139.2446  161.9777 C.3     1  UNL1        0.0577
     11 C         139.2405  137.9313  162.2557 C.3     1  UNL1        0.0187
     12 C         138.8652  137.5633  163.6606 C.3     1  UNL1        0.0326
     13 H         138.4877  137.6120  166.4923 H       1  UNL1        0.2107
     14 C         139.3686  140.1778  168.9612 C.ar    1  UNL1        0.2248
     15 C         140.4991  140.4098  168.0030 C.ar    1  UNL1        0.0575
     16 C         140.4292  139.8534  166.6118 C.ar    1  UNL1        0.0043
     17 C         139.2289  139.0651  166.1787 C.ar    1  UNL1        0.0211
     18 C         138.0984  138.8331  167.1369 C.ar    1  UNL1        0.1000
     19 N         138.1683  139.3895  168.5282 N.ar    1  UNL1       -0.2104
     20 O         139.4385  140.7342  170.3525 O.3     1  UNL1       -0.4602
     21 C         141.5828  141.9723  171.1393 C.3     1  UNL1        0.0512
     22 C         140.7408  140.7316  171.0967 C.3     1  UNL1        0.2072
     23 N         141.6005  138.9299  156.9855 N.am    1  UNL1       -0.3032
     24 C         143.0816  138.8787  156.7533 C.2     1  UNL1        0.2425
     25 O         144.0243  139.3653  157.8137 O.2     1  UNL1       -0.2733
     26 H         140.9818  138.6105  156.2895 H       1  UNL1        0.1495
     27 C         143.6200  138.3408  155.4607 C.3     1  UNL1        0.1759
     28 N         143.9213  136.8777  155.3246 N.am    1  UNL1       -0.2931
     29 C         142.8062  135.8754  155.3645 C.2     1  UNL1        0.2462
     30 O         141.3895  136.3361  155.5404 O.2     1  UNL1       -0.2701
     31 H         144.8511  136.5753  155.2092 H       1  UNL1        0.1502
     32 C         143.1075  134.4123  155.2285 C.ar    1  UNL1        0.0533
     33 C         142.6485  133.6618  154.0135 C.ar    1  UNL1        0.0045
     34 C         142.9499  132.1987  153.8775 C.ar    1  UNL1        0.0001
     35 C         143.7103  131.4860  154.9563 C.ar    1  UNL1        0.0039
     36 C         144.1693  132.2366  156.1712 C.ar    1  UNL1        0.0716
     37 C         143.8679  133.6997  156.3073 C.ar    1  UNL1        0.0084
     38 C         144.9298  131.5240  157.2501 C.3     1  UNL1        0.4186
     39 F         145.6902  130.8114  158.3290 F       1  UNL1       -0.1659
     40 F         144.8054  130.2378  156.4884 F       1  UNL1       -0.1659
     41 F         145.0542  132.8102  158.0120 F       1  UNL1       -0.1659
@<TRIPOS>BOND
     1    21    22    1
     2    22    20    1
     3    20    14    1
     4    14    15   ar
     5    15    16   ar
     6    16    17   ar
     7    17     6    1
     8     6     7    1
     9     6     8    1
    10     8     9    1
    11     9    10    1
    12    10     1    1
    13     1     2    1
    14     2     3    1
    15     3     4    1
    16     4    23    1
    17    23    24   am
    18    24    25    2
    19    24    27    1
    20    27    28    1
    21    28    29   am
    22    29    30    2
    23    29    32    1
    24    32    33   ar
    25    33    34   ar
    26    34    35   ar
    27    35    36   ar
    28    36    38    1
    29    38    39    1
    30    38    40    1
    31    38    41    1
    32    36    37   ar
    33     4     5    1
    34    10    11    1
    35    11    12    1
    36    17    18   ar
    37    18    19   ar
    38    19    14   ar
    39    12     6    1
    40     5     1    1
    41    37    32   ar
    42     7    13    1
    43    23    26    1
    44    28    31    1
@<TRIPOS>MOLECULE
*****
 41 44 0 0 0
SMALL
GASTEIGER

@<TRIPOS>ATOM
      1 N         139.9767  140.8267  158.3554 N.3     1  UNL1       -0.2725
      2 C         138.8227  141.4901  157.6641 C.3     1  UNL1        0.0738
      3 C         138.2785  142.5461  158.5798 C.3     1  UNL1        0.0383
      4 C         139.0963  142.5353  159.8373 C.3     1  UNL1        0.0889
      5 C         140.1458  141.4727  159.6986 C.3     1  UNL1        0.0919
      6 C         142.4907  137.4855  156.6923 C.3     1  UNL1        0.1085
      7 O         143.8491  137.2551  156.0993 O.3     1  UNL1       -0.3826
      8 C         141.1064  137.2031  157.1963 C.3     1  UNL1        0.0326
      9 C         140.2684  138.3169  157.7507 C.3     1  UNL1        0.0187
     10 C         140.8147  139.7129  157.8010 C.3     1  UNL1        0.0577
     11 C         142.1989  139.9953  157.2970 C.3     1  UNL1        0.0187
     12 C         143.0369  138.8815  156.7427 C.3     1  UNL1        0.0326
     13 H         143.9497  136.3164  155.8765 H       1  UNL1        0.2107
     14 C         142.2670  133.0573  155.9234 C.ar    1  UNL1        0.2248
     15 C         141.4780  134.0071  155.0719 C.ar    1  UNL1        0.0575
     16 C         141.5525  135.4832  155.3282 C.ar    1  UNL1        0.0043
     17 C         142.4161  136.0094  156.4360 C.ar    1  UNL1        0.0211
     18 C         143.2052  135.0595  157.2875 C.ar    1  UNL1        0.1000
     19 N         143.1306  133.5835  157.0312 N.ar    1  UNL1       -0.2104
     20 O         142.1925  131.5812  155.6671 O.3     1  UNL1       -0.4602
     21 C         144.3880  130.1985  155.5331 C.3     1  UNL1        0.0512
     22 C         143.2553  130.9071  154.8511 C.3     1  UNL1        0.2072
     23 N         138.8991  143.4301  161.0249 N.am    1  UNL1       -0.3032
     24 C         138.0394  142.9798  162.1687 C.2     1  UNL1        0.2425
     25 O         137.3770  141.6347  162.1249 O.2     1  UNL1       -0.2733
     26 H         139.3338  144.3129  161.0537 H       1  UNL1        0.1495
     27 C         137.8422  143.8746  163.3564 C.3     1  UNL1        0.1759
     28 N         138.5687  143.5913  164.6378 N.am    1  UNL1       -0.2931
     29 C         140.0219  143.2204  164.6098 C.2     1  UNL1        0.2462
     30 O         140.7485  143.1328  163.3004 O.2     1  UNL1       -0.2701
     31 H         138.0919  143.6488  165.4971 H       1  UNL1        0.1502
     32 C         140.7484  142.9371  165.8911 C.ar    1  UNL1        0.0533
     33 C         142.1709  142.4624  165.8575 C.ar    1  UNL1        0.0045
     34 C         142.8975  142.1791  167.1388 C.ar    1  UNL1        0.0001
     35 C         142.2016  142.3705  168.4538 C.ar    1  UNL1        0.0039
     36 C         140.7791  142.8453  168.4874 C.ar    1  UNL1        0.0716
     37 C         140.0526  143.1285  167.2060 C.ar    1  UNL1        0.0084
     38 C         140.0832  143.0367  169.8023 C.3     1  UNL1        0.4186
     39 F         139.3873  143.2282  171.1172 F       1  UNL1       -0.1659
     40 F         140.6672  144.4141  169.9109 F       1  UNL1       -0.1659
     41 F         139.4991  141.6593  169.6938 F       1  UNL1       -0.1659
@<TRIPOS>BOND
     1    21    22    1
     2    22    20    1
     3    20    14    1
     4    14    15   ar
     5    15    16   ar
     6    16    17   ar
     7    17     6    1
     8     6     7    1
     9     6     8    1
    10     8     9    1
    11     9    10    1
    12    10     1    1
    13     1     2    1
    14     2     3    1
    15     3     4    1
    16     4    23    1
    17    23    24   am
    18    24    25    2
    19    24    27    1
    20    27    28    1
    21    28    29   am
    22    29    30    2
    23    29    32    1
    24    32    33   ar
    25    33    34   ar
    26    34    35   ar
    27    35    36   ar
    28    36    38    1
    29    38    39    1
    30    38    40    1
    31    38    41    1
    32    36    37   ar
    33     4     5    1
    34    10    11    1
    35    11    12    1
    36    17    18   ar
    37    18    19   ar
    38    19    14   ar
    39    12     6    1
    40     5     1    1
    41    37    32   ar
    42     7    13    1
    43    23    26    1
    44    28    31    1
@<TRIPOS>MOLECULE
*****
 41 44 0 0 0
SMALL
GASTEIGER

@<TRIPOS>ATOM
      1 N         135.1220  140.0485  155.7864 N.3     1  UNL1       -0.2725
      2 C         136.0752  141.0474  156.3723 C.3     1  UNL1        0.0738
      3 C         137.4415  140.7620  155.8231 C.3     1  UNL1        0.0383
      4 C         137.3327  139.5865  154.8977 C.3     1  UNL1        0.0889
      5 C         135.8992  139.1455  154.8750 C.3     1  UNL1        0.0919
      6 C         130.7060  139.8034  156.6166 C.3     1  UNL1        0.1085
      7 O         129.4450  140.5759  156.3655 O.3     1  UNL1       -0.3826
      8 C         131.6217  138.7190  157.1021 C.3     1  UNL1        0.0326
      9 C         133.0938  138.8008  156.8254 C.3     1  UNL1        0.0187
     10 C         133.6500  139.9667  156.0632 C.3     1  UNL1        0.0577
     11 C         132.7343  141.0510  155.5776 C.3     1  UNL1        0.0187
     12 C         131.2623  140.9693  155.8544 C.3     1  UNL1        0.0326
     13 H         128.6933  140.1035  156.7563 H       1  UNL1        0.2107
     14 C         127.7234  137.1102  158.6417 C.ar    1  UNL1        0.2248
     15 C         128.1474  136.8323  157.2300 C.ar    1  UNL1        0.0575
     16 C         129.1416  137.7300  156.5550 C.ar    1  UNL1        0.0043
     17 C         129.7118  138.9056  157.2916 C.ar    1  UNL1        0.0211
     18 C         129.2879  139.1835  158.7033 C.ar    1  UNL1        0.1000
     19 N         128.2937  138.2858  159.3784 N.ar    1  UNL1       -0.2104
     20 O         126.7292  136.2125  159.3168 O.3     1  UNL1       -0.4602
     21 C         127.7697  135.2406  161.4899 C.3     1  UNL1        0.0512
     22 C         126.7300  136.0821  160.8111 C.3     1  UNL1        0.2072
     23 N         138.4596  138.9617  154.1298 N.am    1  UNL1       -0.3032
     24 C         139.0177  137.6378  154.5610 C.2     1  UNL1        0.2425
     25 O         138.4489  136.9388  155.7601 O.2     1  UNL1       -0.2733
     26 H         138.8329  139.4205  153.3428 H       1  UNL1        0.1495
     27 C         140.1447  137.0130  153.7931 C.3     1  UNL1        0.1759
     28 N         140.6463  135.6512  154.1723 N.am    1  UNL1       -0.2931
     29 C         141.5915  135.4946  155.3265 C.2     1  UNL1        0.2462
     30 O         142.0351  136.6998  156.1015 O.2     1  UNL1       -0.2701
     31 H         140.3552  134.8601  153.6637 H       1  UNL1        0.1502
     32 C         142.0931  134.1328  155.7057 C.ar    1  UNL1        0.0533
     33 C         141.3695  132.9078  155.2303 C.ar    1  UNL1        0.0045
     34 C         141.8711  131.5460  155.6095 C.ar    1  UNL1        0.0001
     35 C         143.0963  131.4090  156.4640 C.ar    1  UNL1        0.0039
     36 C         143.8199  132.6340  156.9393 C.ar    1  UNL1        0.0716
     37 C         143.3182  133.9958  156.5601 C.ar    1  UNL1        0.0084
     38 C         145.0451  132.4971  157.7938 C.3     1  UNL1        0.4186
     39 F         146.2703  132.3602  158.6483 F       1  UNL1       -0.1659
     40 F         144.5659  133.6230  158.6613 F       1  UNL1       -0.1659
     41 F         145.5244  131.3711  156.9262 F       1  UNL1       -0.1659
@<TRIPOS>BOND
     1    21    22    1
     2    22    20    1
     3    20    14    1
     4    14    15   ar
     5    15    16   ar
     6    16    17   ar
     7    17     6    1
     8     6     7    1
     9     6     8    1
    10     8     9    1
    11     9    10    1
    12    10     1    1
    13     1     2    1
    14     2     3    1
    15     3     4    1
    16     4    23    1
    17    23    24   am
    18    24    25    2
    19    24    27    1
    20    27    28    1
    21    28    29   am
    22    29    30    2
    23    29    32    1
    24    32    33   ar
    25    33    34   ar
    26    34    35   ar
    27    35    36   ar
    28    36    38    1
    29    38    39    1
    30    38    40    1
    31    38    41    1
    32    36    37   ar
    33     4     5    1
    34    10    11    1
    35    11    12    1
    36    17    18   ar
    37    18    19   ar
    38    19    14   ar
    39    12     6    1
    40     5     1    1
    41    37    32   ar
    42     7    13    1
    43    23    26    1
    44    28    31    1
@<TRIPOS>MOLECULE
*****
 41 44 0 0 0
SMALL
GASTEIGER

@<TRIPOS>ATOM
      1 N         140.3688  141.1172  159.3576 N.3     1  UNL1       -0.2725
      2 C         140.4106  142.3006  158.4370 C.3     1  UNL1        0.0738
      3 C         141.1488  141.8963  157.1954 C.3     1  UNL1        0.0383
      4 C         141.5632  140.4628  157.3487 C.3     1  UNL1        0.0889
      5 C         141.0811  139.9813  158.6850 C.3     1  UNL1        0.0919
      6 C         138.4441  140.9954  163.4234 C.3     1  UNL1        0.1085
      7 O         137.1189  141.2567  164.0757 O.3     1  UNL1       -0.3826
      8 C         139.8882  140.6217  163.2658 C.3     1  UNL1        0.0326
      9 C         140.5298  140.6623  161.9105 C.3     1  UNL1        0.0187
     10 C         139.7273  141.0766  160.7129 C.3     1  UNL1        0.0577
     11 C         138.2832  141.4503  160.8705 C.3     1  UNL1        0.0187
     12 C         137.6416  141.4097  162.2258 C.3     1  UNL1        0.0326
     13 H         137.1876  141.0846  165.0278 H       1  UNL1        0.2107
     14 C         139.4710  140.0248  167.6958 C.ar    1  UNL1        0.2248
     15 C         138.4955  139.1673  166.9455 C.ar    1  UNL1        0.0575
     16 C         138.1531  139.4908  165.5214 C.ar    1  UNL1        0.0043
     17 C         138.7864  140.6718  164.8475 C.ar    1  UNL1        0.0211
     18 C         139.7620  141.5293  165.5978 C.ar    1  UNL1        0.1000
     19 N         140.1043  141.2058  167.0219 N.ar    1  UNL1       -0.2104
     20 O         139.8133  139.7012  169.1199 O.3     1  UNL1       -0.4602
     21 C         142.3085  139.2073  169.6488 C.3     1  UNL1        0.0512
     22 C         141.1305  140.1348  169.6918 C.3     1  UNL1        0.2072
     23 N         142.3257  139.6531  156.3423 N.am    1  UNL1       -0.3032
     24 C         143.8118  139.4983  156.4751 C.2     1  UNL1        0.2425
     25 O         144.5353  140.1532  157.6143 O.2     1  UNL1       -0.2733
     26 H         141.8509  139.2233  155.5947 H       1  UNL1        0.1495
     27 C         144.5745  138.6885  155.4687 C.3     1  UNL1        0.1759
     28 N         144.4116  137.1980  155.4267 N.am    1  UNL1       -0.2931
     29 C         143.2019  136.5938  154.7775 C.2     1  UNL1        0.2462
     30 O         142.1550  137.4800  154.1703 O.2     1  UNL1       -0.2701
     31 H         145.0986  136.6163  155.8252 H       1  UNL1        0.1502
     32 C         143.0390  135.1032  154.7354 C.ar    1  UNL1        0.0533
     33 C         142.2678  134.4643  153.6186 C.ar    1  UNL1        0.0045
     34 C         142.1049  132.9738  153.5766 C.ar    1  UNL1        0.0001
     35 C         142.7131  132.1221  154.6512 C.ar    1  UNL1        0.0039
     36 C         143.4842  132.7611  155.7679 C.ar    1  UNL1        0.0716
     37 C         143.6471  134.2517  155.8100 C.ar    1  UNL1        0.0084
     38 C         144.0925  131.9095  156.8427 C.3     1  UNL1        0.4186
     39 F         144.7007  131.0580  157.9173 F       1  UNL1       -0.1659
     40 F         142.7244  131.6102  157.3798 F       1  UNL1       -0.1659
     41 F         145.4607  132.2089  156.3055 F       1  UNL1       -0.1659
@<TRIPOS>BOND
     1    21    22    1
     2    22    20    1
     3    20    14    1
     4    14    15   ar
     5    15    16   ar
     6    16    17   ar
     7    17     6    1
     8     6     7    1
     9     6     8    1
    10     8     9    1
    11     9    10    1
    12    10     1    1
    13     1     2    1
    14     2     3    1
    15     3     4    1
    16     4    23    1
    17    23    24   am
    18    24    25    2
    19    24    27    1
    20    27    28    1
    21    28    29   am
    22    29    30    2
    23    29    32    1
    24    32    33   ar
    25    33    34   ar
    26    34    35   ar
    27    35    36   ar
    28    36    38    1
    29    38    39    1
    30    38    40    1
    31    38    41    1
    32    36    37   ar
    33     4     5    1
    34    10    11    1
    35    11    12    1
    36    17    18   ar
    37    18    19   ar
    38    19    14   ar
    39    12     6    1
    40     5     1    1
    41    37    32   ar
    42     7    13    1
    43    23    26    1
    44    28    31    1
@<TRIPOS>MOLECULE
*****
 41 44 0 0 0
SMALL
GASTEIGER

@<TRIPOS>ATOM
      1 N         142.2458  140.7584  158.1587 N.3     1  UNL1       -0.2725
      2 C         142.0596  142.0931  157.5001 C.3     1  UNL1        0.0738
      3 C         141.6311  143.0732  158.5516 C.3     1  UNL1        0.0383
      4 C         141.5524  142.3442  159.8602 C.3     1  UNL1        0.0889
      5 C         141.9323  140.9137  159.6174 C.3     1  UNL1        0.0919
      6 C         143.5209  136.9562  156.1173 C.3     1  UNL1        0.1085
      7 O         144.4908  136.4802  155.0767 O.3     1  UNL1       -0.3826
      8 C         142.4404  136.9232  157.1572 C.3     1  UNL1        0.0326
      9 C         142.0154  138.1906  157.8377 C.3     1  UNL1        0.0187
     10 C         142.6708  139.4910  157.4783 C.3     1  UNL1        0.0577
     11 C         143.7513  139.5241  156.4384 C.3     1  UNL1        0.0187
     12 C         144.1764  138.2567  155.7579 C.3     1  UNL1        0.0326
     13 H         144.3983  135.5213  154.9631 H       1  UNL1        0.2107
     14 C         142.5650  132.5589  156.1115 C.ar    1  UNL1        0.2248
     15 C         142.4214  133.3594  154.8511 C.ar    1  UNL1        0.0575
     16 C         142.7400  134.8251  154.8530 C.ar    1  UNL1        0.0043
     17 C         143.2023  135.4905  156.1154 C.ar    1  UNL1        0.0211
     18 C         143.3460  134.6901  157.3758 C.ar    1  UNL1        0.1000
     19 N         143.0273  133.2243  157.3738 N.ar    1  UNL1       -0.2104
     20 O         142.2464  131.0932  156.1095 O.3     1  UNL1       -0.4602
     21 C         141.0384  129.0827  154.9922 C.3     1  UNL1        0.0512
     22 C         141.6152  130.4645  154.9028 C.3     1  UNL1        0.2072
     23 N         141.1624  142.9411  161.1798 N.am    1  UNL1       -0.3032
     24 C         142.1510  143.7625  161.9530 C.2     1  UNL1        0.2425
     25 O         143.5298  143.9870  161.4066 O.2     1  UNL1       -0.2733
     26 H         140.2574  142.7938  161.5385 H       1  UNL1        0.1495
     27 C         141.7610  144.3594  163.2728 C.3     1  UNL1        0.1759
     28 N         141.5406  143.4717  164.4616 N.am    1  UNL1       -0.2931
     29 C         140.2313  142.7604  164.6341 C.2     1  UNL1        0.2462
     30 O         139.1424  142.9367  163.6177 O.2     1  UNL1       -0.2701
     31 H         142.2553  143.3560  165.1287 H       1  UNL1        0.1502
     32 C         140.0110  141.8727  165.8230 C.ar    1  UNL1        0.0533
     33 C         140.6173  142.2293  167.1478 C.ar    1  UNL1        0.0045
     34 C         140.3969  141.3416  168.3367 C.ar    1  UNL1        0.0001
     35 C         139.5703  140.0973  168.2008 C.ar    1  UNL1        0.0039
     36 C         138.9641  139.7407  166.8759 C.ar    1  UNL1        0.0716
     37 C         139.1844  140.6284  165.6870 C.ar    1  UNL1        0.0084
     38 C         138.1375  138.4964  166.7399 C.3     1  UNL1        0.4186
     39 F         137.3109  137.2521  166.6039 F       1  UNL1       -0.1659
     40 F         137.4856  138.7852  168.0596 F       1  UNL1       -0.1659
     41 F         138.7894  138.2075  165.4202 F       1  UNL1       -0.1659
@<TRIPOS>BOND
     1    21    22    1
     2    22    20    1
     3    20    14    1
     4    14    15   ar
     5    15    16   ar
     6    16    17   ar
     7    17     6    1
     8     6     7    1
     9     6     8    1
    10     8     9    1
    11     9    10    1
    12    10     1    1
    13     1     2    1
    14     2     3    1
    15     3     4    1
    16     4    23    1
    17    23    24   am
    18    24    25    2
    19    24    27    1
    20    27    28    1
    21    28    29   am
    22    29    30    2
    23    29    32    1
    24    32    33   ar
    25    33    34   ar
    26    34    35   ar
    27    35    36   ar
    28    36    38    1
    29    38    39    1
    30    38    40    1
    31    38    41    1
    32    36    37   ar
    33     4     5    1
    34    10    11    1
    35    11    12    1
    36    17    18   ar
    37    18    19   ar
    38    19    14   ar
    39    12     6    1
    40     5     1    1
    41    37    32   ar
    42     7    13    1
    43    23    26    1
    44    28    31    1
@<TRIPOS>MOLECULE
*****
 41 44 0 0 0
SMALL
GASTEIGER

@<TRIPOS>ATOM
      1 N         139.4548  139.2645  159.9359 N.3     1  UNL1       -0.2725
      2 C         138.6517  140.2786  159.1766 C.3     1  UNL1        0.0738
      3 C         138.9463  140.1042  157.7162 C.3     1  UNL1        0.0383
      4 C         139.9316  138.9823  157.5729 C.3     1  UNL1        0.0889
      5 C         140.2458  138.4633  158.9447 C.3     1  UNL1        0.0919
      6 C         139.4858  138.7208  164.4028 C.3     1  UNL1        0.1085
      7 O         138.9472  137.7930  165.4511 O.3     1  UNL1       -0.3826
      8 C         140.2169  139.8744  163.7826 C.3     1  UNL1        0.0326
      9 C         140.2066  140.0557  162.2936 C.3     1  UNL1        0.0187
     10 C         139.4652  139.0833  161.4248 C.3     1  UNL1        0.0577
     11 C         138.7340  137.9297  162.0450 C.3     1  UNL1        0.0187
     12 C         138.7443  137.7485  163.5340 C.3     1  UNL1        0.0326
     13 H         139.2322  138.0952  166.3277 H       1  UNL1        0.2107
     14 C         141.1490  140.6711  168.1014 C.ar    1  UNL1        0.2248
     15 C         139.6817  140.3751  168.0048 C.ar    1  UNL1        0.0575
     16 C         139.1273  139.7250  166.7719 C.ar    1  UNL1        0.0043
     17 C         140.0402  139.3709  165.6356 C.ar    1  UNL1        0.0211
     18 C         141.5074  139.6669  165.7322 C.ar    1  UNL1        0.1000
     19 N         142.0618  140.3170  166.9651 N.ar    1  UNL1       -0.2104
     20 O         141.7034  141.3212  169.3343 O.3     1  UNL1       -0.4602
     21 C         140.4757  143.5833  169.6888 C.3     1  UNL1        0.0512
     22 C         141.7411  142.8169  169.4411 C.3     1  UNL1        0.2072
     23 N         140.5023  138.4694  156.2841 N.am    1  UNL1       -0.3032
     24 C         139.7320  137.4763  155.4653 C.2     1  UNL1        0.2425
     25 O         138.3909  136.9962  155.9353 O.2     1  UNL1       -0.2733
     26 H         141.3825  138.7845  155.9756 H       1  UNL1        0.1495
     27 C         140.3027  136.9634  154.1763 C.3     1  UNL1        0.1759
     28 N         140.9135  135.5946  154.1187 N.am    1  UNL1       -0.2931
     29 C         142.0955  135.2638  154.9808 C.2     1  UNL1        0.2462
     30 O         142.6669  136.3018  155.9006 O.2     1  UNL1       -0.2701
     31 H         140.5385  134.9133  153.5150 H       1  UNL1        0.1502
     32 C         142.7063  133.8950  154.9231 C.ar    1  UNL1        0.0533
     33 C         142.5519  133.0563  153.6891 C.ar    1  UNL1        0.0045
     34 C         143.1627  131.6875  153.6314 C.ar    1  UNL1        0.0001
     35 C         143.9278  131.1573  154.8076 C.ar    1  UNL1        0.0039
     36 C         144.0821  131.9961  156.0416 C.ar    1  UNL1        0.0716
     37 C         143.4714  133.3649  156.0993 C.ar    1  UNL1        0.0084
     38 C         144.8473  131.4660  157.2179 C.3     1  UNL1        0.4186
     39 F         145.6123  130.9359  158.3942 F       1  UNL1       -0.1659
     40 F         144.5807  130.0630  156.7591 F       1  UNL1       -0.1659
     41 F         145.1138  132.8690  157.6768 F       1  UNL1       -0.1659
@<TRIPOS>BOND
     1    21    22    1
     2    22    20    1
     3    20    14    1
     4    14    15   ar
     5    15    16   ar
     6    16    17   ar
     7    17     6    1
     8     6     7    1
     9     6     8    1
    10     8     9    1
    11     9    10    1
    12    10     1    1
    13     1     2    1
    14     2     3    1
    15     3     4    1
    16     4    23    1
    17    23    24   am
    18    24    25    2
    19    24    27    1
    20    27    28    1
    21    28    29   am
    22    29    30    2
    23    29    32    1
    24    32    33   ar
    25    33    34   ar
    26    34    35   ar
    27    35    36   ar
    28    36    38    1
    29    38    39    1
    30    38    40    1
    31    38    41    1
    32    36    37   ar
    33     4     5    1
    34    10    11    1
    35    11    12    1
    36    17    18   ar
    37    18    19   ar
    38    19    14   ar
    39    12     6    1
    40     5     1    1
    41    37    32   ar
    42     7    13    1
    43    23    26    1
    44    28    31    1
