@<TRIPOS>MOLECULE
*****
 34 37 0 0 0
SMALL
GASTEIGER

@<TRIPOS>ATOM
      1 N         138.2141  139.7861  162.5742 N.3     1  UNL1       -0.2710
      2 C         137.7872  140.5626  163.7845 C.3     1  UNL1        0.0735
      3 C         137.6130  142.0499  163.6984 C.3     1  UNL1        0.0331
      4 C         137.8656  142.7608  162.4020 C.3     1  UNL1        0.0570
      5 C         138.2925  141.9843  161.1917 C.3     1  UNL1        0.0331
      6 C         138.4667  140.4970  161.2778 C.3     1  UNL1        0.0735
      7 N         137.6914  144.2482  162.3159 N.3     1  UNL1       -0.2947
      8 H         136.8441  144.4760  162.8359 H       1  UNL1        0.1235
      9 C         138.7690  145.1601  162.8230 C.3     1  UNL1        0.0972
     10 C         140.2112  144.8157  162.5961 C.ar    1  UNL1        0.0137
     11 C         140.8028  144.9313  161.2225 C.ar    1  UNL1        0.0991
     12 N         142.2450  144.5869  160.9957 N.ar    1  UNL1       -0.2099
     13 C         143.0956  144.1270  162.1424 C.ar    1  UNL1        0.2348
     14 C         142.5040  144.0114  163.5160 C.ar    1  UNL1        0.1212
     15 C         141.0618  144.3558  163.7428 C.ar    1  UNL1        0.0136
     16 O         144.5378  143.7826  161.9156 O.3     1  UNL1       -0.4557
     17 C         144.9302  142.3709  161.5942 C.3     1  UNL1        0.2543
     18 C         143.3546  143.5515  164.6627 C.1     1  UNL1        0.1051
     19 N         144.2052  143.0916  165.8095 N.1     1  UNL1       -0.1907
     20 C         138.3883  138.2987  162.6604 C.3     1  UNL1        0.0970
     21 C         139.2644  137.7066  163.7242 C.3     1  UNL1        0.1264
     22 C         140.0638  139.7652  167.6450 C.ar    1  UNL1        0.1593
     23 C         141.4144  140.3571  167.9196 C.ar    1  UNL1        0.1357
     24 N         142.4986  140.2628  166.8873 N.ar    1  UNL1       -0.2392
     25 C         142.2321  139.5766  165.5804 C.ar    1  UNL1        0.0975
     26 C         143.3163  139.4823  164.5481 C.ar    1  UNL1        0.0255
     27 C         143.0499  138.7962  163.2412 C.ar    1  UNL1        0.0623
     28 C         141.6992  138.2042  162.9665 C.ar    1  UNL1        0.2611
     29 O         141.4328  137.5180  161.6596 O.2     1  UNL1       -0.2670
     30 N         140.6150  138.2985  163.9988 N.ar    1  UNL1       -0.2926
     31 C         140.8815  138.9847  165.3058 C.ar    1  UNL1        0.0832
     32 C         139.7974  139.0790  166.3381 C.ar    1  UNL1        0.0573
     33 C         139.2006  140.6608  169.9260 C.3     1  UNL1        0.2525
     34 O         138.9796  139.8595  168.6774 O.3     1  UNL1       -0.4698
@<TRIPOS>BOND
     1    33    34    1
     2    34    22    1
     3    22    23   ar
     4    23    24   ar
     5    24    25   ar
     6    25    26   ar
     7    26    27   ar
     8    27    28   ar
     9    28    29    2
    10    28    30   ar
    11    30    21    1
    12    21    20    1
    13    20     1    1
    14     1     2    1
    15     2     3    1
    16     3     4    1
    17     4     7    1
    18     7     9    1
    19     9    10    1
    20    10    11   ar
    21    11    12   ar
    22    12    13   ar
    23    13    16    1
    24    16    17    1
    25    13    14   ar
    26    14    18    1
    27    18    19    3
    28    14    15   ar
    29     4     5    1
    30     5     6    1
    31    30    31   ar
    32    31    32   ar
    33    32    22   ar
    34    31    25   ar
    35     6     1    1
    36    15    10   ar
    37     7     8    1
@<TRIPOS>MOLECULE
*****
 34 37 0 0 0
SMALL
GASTEIGER

@<TRIPOS>ATOM
      1 N         141.1654  144.7319  162.7720 N.3     1  UNL1       -0.2710
      2 C         142.2642  144.9240  163.7749 C.3     1  UNL1        0.0735
      3 C         143.6267  144.3539  163.5131 C.3     1  UNL1        0.0331
      4 C         143.8903  143.5916  162.2484 C.3     1  UNL1        0.0570
      5 C         142.7915  143.3995  161.2456 C.3     1  UNL1        0.0331
      6 C         141.4291  143.9696  161.5074 C.3     1  UNL1        0.0735
      7 N         145.2529  143.0214  161.9865 N.3     1  UNL1       -0.2947
      8 H         145.9228  143.7733  162.1484 H       1  UNL1        0.1235
      9 C         145.7336  141.8368  162.7712 C.3     1  UNL1        0.0972
     10 C         144.7667  140.7654  163.1799 C.ar    1  UNL1        0.0137
     11 C         144.0412  139.9713  162.1344 C.ar    1  UNL1        0.0991
     12 N         143.0742  138.8999  162.5432 N.ar    1  UNL1       -0.2099
     13 C         142.8327  138.6226  163.9975 C.ar    1  UNL1        0.2348
     14 C         143.5582  139.4168  165.0429 C.ar    1  UNL1        0.1212
     15 C         144.5252  140.4882  164.6341 C.ar    1  UNL1        0.0136
     16 O         141.8658  137.5513  164.4062 O.3     1  UNL1       -0.4557
     17 C         140.7910  137.1094  163.4578 C.3     1  UNL1        0.2543
     18 C         143.3168  139.1395  166.4972 C.1     1  UNL1        0.1051
     19 N         143.0753  138.8622  167.9514 N.1     1  UNL1       -0.1907
     20 C         139.8029  145.3021  163.0339 C.3     1  UNL1        0.0970
     21 C         138.9368  144.7125  164.1073 C.3     1  UNL1        0.1264
     22 C         140.4483  142.2954  167.5891 C.ar    1  UNL1        0.1593
     23 C         140.2119  140.8148  167.6332 C.ar    1  UNL1        0.1357
     24 N         139.4716  140.1399  166.5167 N.ar    1  UNL1       -0.2392
     25 C         138.9678  140.9456  165.3561 C.ar    1  UNL1        0.0975
     26 C         138.2275  140.2707  164.2396 C.ar    1  UNL1        0.0255
     27 C         137.7237  141.0764  163.0791 C.ar    1  UNL1        0.0623
     28 C         137.9601  142.5571  163.0349 C.ar    1  UNL1        0.2611
     29 O         137.4563  143.3627  161.8744 O.2     1  UNL1       -0.2670
     30 N         138.7004  143.2319  164.1514 N.ar    1  UNL1       -0.2926
     31 C         139.2042  142.4262  165.3120 C.ar    1  UNL1        0.0832
     32 C         139.9445  143.1010  166.4285 C.ar    1  UNL1        0.0573
     33 C         140.4391  143.7848  169.7178 C.3     1  UNL1        0.2525
     34 O         141.1886  142.9702  168.7056 O.3     1  UNL1       -0.4698
@<TRIPOS>BOND
     1    33    34    1
     2    34    22    1
     3    22    23   ar
     4    23    24   ar
     5    24    25   ar
     6    25    26   ar
     7    26    27   ar
     8    27    28   ar
     9    28    29    2
    10    28    30   ar
    11    30    21    1
    12    21    20    1
    13    20     1    1
    14     1     2    1
    15     2     3    1
    16     3     4    1
    17     4     7    1
    18     7     9    1
    19     9    10    1
    20    10    11   ar
    21    11    12   ar
    22    12    13   ar
    23    13    16    1
    24    16    17    1
    25    13    14   ar
    26    14    18    1
    27    18    19    3
    28    14    15   ar
    29     4     5    1
    30     5     6    1
    31    30    31   ar
    32    31    32   ar
    33    32    22   ar
    34    31    25   ar
    35     6     1    1
    36    15    10   ar
    37     7     8    1
@<TRIPOS>MOLECULE
*****
 34 37 0 0 0
SMALL
GASTEIGER

@<TRIPOS>ATOM
      1 N         137.8979  142.8596  162.8772 N.3     1  UNL1       -0.2710
      2 C         138.1220  142.3896  161.4705 C.3     1  UNL1        0.0735
      3 C         138.1491  140.9211  161.1657 C.3     1  UNL1        0.0331
      4 C         137.9521  139.9227  162.2676 C.3     1  UNL1        0.0570
      5 C         137.7280  140.3927  163.6744 C.3     1  UNL1        0.0331
      6 C         137.7009  141.8612  163.9791 C.3     1  UNL1        0.0735
      7 N         137.9792  138.4542  161.9629 N.3     1  UNL1       -0.2947
      8 H         138.2250  138.3625  160.9772 H       1  UNL1        0.1235
      9 C         138.8993  137.5470  162.7248 C.3     1  UNL1        0.0972
     10 C         140.3336  137.9347  162.9309 C.ar    1  UNL1        0.0137
     11 C         141.1972  138.2688  161.7509 C.ar    1  UNL1        0.0991
     12 N         142.6315  138.6565  161.9571 N.ar    1  UNL1       -0.2099
     13 C         143.2022  138.7100  163.3433 C.ar    1  UNL1        0.2348
     14 C         142.3385  138.3758  164.5233 C.ar    1  UNL1        0.1212
     15 C         140.9042  137.9882  164.3171 C.ar    1  UNL1        0.0136
     16 O         144.6364  139.0977  163.5494 O.3     1  UNL1       -0.4557
     17 C         145.0499  140.5345  163.4283 C.3     1  UNL1        0.2543
     18 C         142.9091  138.4293  165.9095 C.1     1  UNL1        0.1051
     19 N         143.4798  138.4828  167.2957 N.1     1  UNL1       -0.1907
     20 C         137.8709  144.3281  163.1819 C.3     1  UNL1        0.0970
     21 C         138.8983  144.9229  164.0987 C.3     1  UNL1        0.1264
     22 C         140.8772  142.2719  167.1493 C.ar    1  UNL1        0.1593
     23 C         142.3228  141.9019  166.9963 C.ar    1  UNL1        0.1357
     24 N         143.1087  142.4156  165.8265 N.ar    1  UNL1       -0.2392
     25 C         142.4491  143.2992  164.8097 C.ar    1  UNL1        0.0975
     26 C         143.2351  143.8129  163.6399 C.ar    1  UNL1        0.0255
     27 C         142.5755  144.6965  162.6230 C.ar    1  UNL1        0.0623
     28 C         141.1298  145.0666  162.7760 C.ar    1  UNL1        0.2611
     29 O         140.4702  145.9502  161.7591 O.2     1  UNL1       -0.2670
     30 N         140.3439  144.5529  163.9458 N.ar    1  UNL1       -0.2926
     31 C         141.0036  143.6692  164.9626 C.ar    1  UNL1        0.0832
     32 C         140.2176  143.1555  166.1324 C.ar    1  UNL1        0.0573
     33 C         140.1440  140.3025  168.6770 C.3     1  UNL1        0.2525
     34 O         140.0913  141.7582  168.3191 O.3     1  UNL1       -0.4698
@<TRIPOS>BOND
     1    33    34    1
     2    34    22    1
     3    22    23   ar
     4    23    24   ar
     5    24    25   ar
     6    25    26   ar
     7    26    27   ar
     8    27    28   ar
     9    28    29    2
    10    28    30   ar
    11    30    21    1
    12    21    20    1
    13    20     1    1
    14     1     2    1
    15     2     3    1
    16     3     4    1
    17     4     7    1
    18     7     9    1
    19     9    10    1
    20    10    11   ar
    21    11    12   ar
    22    12    13   ar
    23    13    16    1
    24    16    17    1
    25    13    14   ar
    26    14    18    1
    27    18    19    3
    28    14    15   ar
    29     4     5    1
    30     5     6    1
    31    30    31   ar
    32    31    32   ar
    33    32    22   ar
    34    31    25   ar
    35     6     1    1
    36    15    10   ar
    37     7     8    1
@<TRIPOS>MOLECULE
*****
 34 37 0 0 0
SMALL
GASTEIGER

@<TRIPOS>ATOM
      1 N         142.6792  144.2367  163.4050 N.3     1  UNL1       -0.2710
      2 C         142.5403  143.5565  162.0754 C.3     1  UNL1        0.0735
      3 C         141.1783  143.3129  161.4963 C.3     1  UNL1        0.0331
      4 C         139.9551  143.7495  162.2468 C.3     1  UNL1        0.0570
      5 C         140.0941  144.4297  163.5765 C.3     1  UNL1        0.0331
      6 C         141.4561  144.6733  164.1556 C.3     1  UNL1        0.0735
      7 N         138.5930  143.5058  161.6677 N.3     1  UNL1       -0.2947
      8 H         138.7339  143.1706  160.7147 H       1  UNL1        0.1235
      9 C         137.6572  142.5403  162.3325 C.3     1  UNL1        0.0972
     10 C         138.1781  141.2407  162.8706 C.ar    1  UNL1        0.0137
     11 C         139.0042  140.3442  161.9966 C.ar    1  UNL1        0.0991
     12 N         139.5251  139.0447  162.5348 N.ar    1  UNL1       -0.2099
     13 C         139.2200  138.6415  163.9470 C.ar    1  UNL1        0.2348
     14 C         138.3940  139.5380  164.8211 C.ar    1  UNL1        0.1212
     15 C         137.8730  140.8376  164.2829 C.ar    1  UNL1        0.0136
     16 O         139.7410  137.3420  164.4852 O.3     1  UNL1       -0.4557
     17 C         141.0924  136.8443  164.0657 C.3     1  UNL1        0.2543
     18 C         138.0889  139.1349  166.2333 C.1     1  UNL1        0.1051
     19 N         137.7838  138.7319  167.6456 N.1     1  UNL1       -0.1907
     20 C         144.0414  144.4804  163.9842 C.3     1  UNL1        0.0970
     21 C         144.5864  143.5571  165.0332 C.3     1  UNL1        0.1264
     22 C         141.5156  141.7053  167.7518 C.ar    1  UNL1        0.1593
     23 C         141.2356  140.2337  167.6745 C.ar    1  UNL1        0.1357
     24 N         141.9791  139.3794  166.6910 N.ar    1  UNL1       -0.2392
     25 C         143.0027  139.9966  165.7848 C.ar    1  UNL1        0.0975
     26 C         143.7463  139.1423  164.8013 C.ar    1  UNL1        0.0255
     27 C         144.7699  139.7595  163.8951 C.ar    1  UNL1        0.0623
     28 C         145.0499  141.2312  163.9724 C.ar    1  UNL1        0.2611
     29 O         146.0735  141.8484  163.0662 O.2     1  UNL1       -0.2670
     30 N         144.3064  142.0855  164.9559 N.ar    1  UNL1       -0.2926
     31 C         143.2828  141.4682  165.8621 C.ar    1  UNL1        0.0832
     32 C         142.5392  142.3225  166.8456 C.ar    1  UNL1        0.0573
     33 C         139.9500  141.9191  169.8141 C.3     1  UNL1        0.2525
     34 O         140.7721  142.5596  168.7353 O.3     1  UNL1       -0.4698
@<TRIPOS>BOND
     1    33    34    1
     2    34    22    1
     3    22    23   ar
     4    23    24   ar
     5    24    25   ar
     6    25    26   ar
     7    26    27   ar
     8    27    28   ar
     9    28    29    2
    10    28    30   ar
    11    30    21    1
    12    21    20    1
    13    20     1    1
    14     1     2    1
    15     2     3    1
    16     3     4    1
    17     4     7    1
    18     7     9    1
    19     9    10    1
    20    10    11   ar
    21    11    12   ar
    22    12    13   ar
    23    13    16    1
    24    16    17    1
    25    13    14   ar
    26    14    18    1
    27    18    19    3
    28    14    15   ar
    29     4     5    1
    30     5     6    1
    31    30    31   ar
    32    31    32   ar
    33    32    22   ar
    34    31    25   ar
    35     6     1    1
    36    15    10   ar
    37     7     8    1
@<TRIPOS>MOLECULE
*****
 34 37 0 0 0
SMALL
GASTEIGER

@<TRIPOS>ATOM
      1 N         144.5371  140.8343  162.4234 N.3     1  UNL1       -0.2710
      2 C         144.2041  139.5015  163.0257 C.3     1  UNL1        0.0735
      3 C         143.1951  138.6105  162.3639 C.3     1  UNL1        0.0331
      4 C         142.5192  139.0523  161.0998 C.3     1  UNL1        0.0570
      5 C         142.8523  140.3851  160.4975 C.3     1  UNL1        0.0331
      6 C         143.8613  141.2761  161.1593 C.3     1  UNL1        0.0735
      7 N         141.5102  138.1613  160.4379 N.3     1  UNL1       -0.2947
      8 H         141.6938  137.2134  160.7668 H       1  UNL1        0.1235
      9 C         140.0445  138.4119  160.6353 C.3     1  UNL1        0.0972
     10 C         139.5089  138.6864  162.0092 C.ar    1  UNL1        0.0137
     11 C         139.4701  137.5899  163.0320 C.ar    1  UNL1        0.0991
     12 N         138.9345  137.8644  164.4059 N.ar    1  UNL1       -0.2099
     13 C         138.4376  139.2355  164.7571 C.ar    1  UNL1        0.2348
     14 C         138.4763  140.3320  163.7342 C.ar    1  UNL1        0.1212
     15 C         139.0120  140.0574  162.3603 C.ar    1  UNL1        0.0136
     16 O         137.9019  139.5100  166.1310 O.3     1  UNL1       -0.4557
     17 C         137.5769  138.3706  167.0508 C.3     1  UNL1        0.2543
     18 C         137.9794  141.7031  164.0853 C.1     1  UNL1        0.1051
     19 N         137.4825  143.0742  164.4364 N.1     1  UNL1       -0.1907
     20 C         145.5462  141.7254  163.0853 C.3     1  UNL1        0.0970
     21 C         145.1475  142.5647  164.2629 C.3     1  UNL1        0.1264
     22 C         142.4050  140.6027  167.2427 C.ar    1  UNL1        0.1593
     23 C         140.9881  141.0747  167.3819 C.ar    1  UNL1        0.1357
     24 N         140.4852  142.2007  166.5279 N.ar    1  UNL1       -0.2392
     25 C         141.3994  142.8547  165.5346 C.ar    1  UNL1        0.0975
     26 C         140.8965  143.9806  164.6806 C.ar    1  UNL1        0.0255
     27 C         141.8107  144.6346  163.6874 C.ar    1  UNL1        0.0623
     28 C         143.2277  144.1626  163.5481 C.ar    1  UNL1        0.2611
     29 O         144.1418  144.8166  162.5548 O.2     1  UNL1       -0.2670
     30 N         143.7305  143.0367  164.4021 N.ar    1  UNL1       -0.2926
     31 C         142.8163  142.3827  165.3954 C.ar    1  UNL1        0.0832
     32 C         143.3191  141.2567  166.2494 C.ar    1  UNL1        0.0573
     33 C         142.3998  139.3140  169.4986 C.3     1  UNL1        0.2525
     34 O         142.9078  139.4767  168.0967 O.3     1  UNL1       -0.4698
@<TRIPOS>BOND
     1    33    34    1
     2    34    22    1
     3    22    23   ar
     4    23    24   ar
     5    24    25   ar
     6    25    26   ar
     7    26    27   ar
     8    27    28   ar
     9    28    29    2
    10    28    30   ar
    11    30    21    1
    12    21    20    1
    13    20     1    1
    14     1     2    1
    15     2     3    1
    16     3     4    1
    17     4     7    1
    18     7     9    1
    19     9    10    1
    20    10    11   ar
    21    11    12   ar
    22    12    13   ar
    23    13    16    1
    24    16    17    1
    25    13    14   ar
    26    14    18    1
    27    18    19    3
    28    14    15   ar
    29     4     5    1
    30     5     6    1
    31    30    31   ar
    32    31    32   ar
    33    32    22   ar
    34    31    25   ar
    35     6     1    1
    36    15    10   ar
    37     7     8    1
@<TRIPOS>MOLECULE
*****
 34 37 0 0 0
SMALL
GASTEIGER

@<TRIPOS>ATOM
      1 N         142.8867  144.1924  163.2683 N.3     1  UNL1       -0.2710
      2 C         141.6854  144.7423  163.9786 C.3     1  UNL1        0.0735
      3 C         140.3287  144.6400  163.3470 C.3     1  UNL1        0.0331
      4 C         140.1734  143.9879  162.0052 C.3     1  UNL1        0.0570
      5 C         141.3747  143.4381  161.2949 C.3     1  UNL1        0.0331
      6 C         142.7314  143.5404  161.9264 C.3     1  UNL1        0.0735
      7 N         138.8166  143.8856  161.3736 N.3     1  UNL1       -0.2947
      8 H         138.9195  144.1868  160.4045 H       1  UNL1        0.1235
      9 C         138.1006  142.5679  161.3438 C.3     1  UNL1        0.0972
     10 C         138.2940  141.5839  162.4592 C.ar    1  UNL1        0.0137
     11 C         137.6311  141.8133  163.7851 C.ar    1  UNL1        0.0991
     12 N         137.8245  140.8292  164.9005 N.ar    1  UNL1       -0.2099
     13 C         138.6808  139.6158  164.6902 C.ar    1  UNL1        0.2348
     14 C         139.3438  139.3864  163.3643 C.ar    1  UNL1        0.1212
     15 C         139.1503  140.3705  162.2488 C.ar    1  UNL1        0.0136
     16 O         138.8742  138.6318  165.8056 O.3     1  UNL1       -0.4557
     17 C         137.7413  138.3243  166.7394 C.3     1  UNL1        0.2543
     18 C         140.2001  138.1730  163.1539 C.1     1  UNL1        0.1051
     19 N         141.0565  136.9595  162.9434 N.1     1  UNL1       -0.1907
     20 C         144.2435  144.2947  163.8999 C.3     1  UNL1        0.0970
     21 C         144.6010  143.4091  165.0565 C.3     1  UNL1        0.1264
     22 C         141.4482  141.6715  167.7567 C.ar    1  UNL1        0.1593
     23 C         141.1391  140.2047  167.7018 C.ar    1  UNL1        0.1357
     24 N         141.8809  139.3172  166.7468 N.ar    1  UNL1       -0.2392
     25 C         142.9318  139.8963  165.8468 C.ar    1  UNL1        0.0975
     26 C         143.6736  139.0088  164.8918 C.ar    1  UNL1        0.0255
     27 C         144.7245  139.5879  163.9918 C.ar    1  UNL1        0.0623
     28 C         145.0337  141.0547  164.0466 C.ar    1  UNL1        0.2611
     29 O         146.0846  141.6339  163.1466 O.2     1  UNL1       -0.2670
     30 N         144.2919  141.9423  165.0016 N.ar    1  UNL1       -0.2926
     31 C         143.2409  141.3631  165.9017 C.ar    1  UNL1        0.0832
     32 C         142.4991  142.2507  166.8566 C.ar    1  UNL1        0.0573
     33 C         141.4296  143.1917  169.8635 C.3     1  UNL1        0.2525
     34 O         140.7064  142.5591  168.7116 O.3     1  UNL1       -0.4698
@<TRIPOS>BOND
     1    33    34    1
     2    34    22    1
     3    22    23   ar
     4    23    24   ar
     5    24    25   ar
     6    25    26   ar
     7    26    27   ar
     8    27    28   ar
     9    28    29    2
    10    28    30   ar
    11    30    21    1
    12    21    20    1
    13    20     1    1
    14     1     2    1
    15     2     3    1
    16     3     4    1
    17     4     7    1
    18     7     9    1
    19     9    10    1
    20    10    11   ar
    21    11    12   ar
    22    12    13   ar
    23    13    16    1
    24    16    17    1
    25    13    14   ar
    26    14    18    1
    27    18    19    3
    28    14    15   ar
    29     4     5    1
    30     5     6    1
    31    30    31   ar
    32    31    32   ar
    33    32    22   ar
    34    31    25   ar
    35     6     1    1
    36    15    10   ar
    37     7     8    1
@<TRIPOS>MOLECULE
*****
 34 37 0 0 0
SMALL
GASTEIGER

@<TRIPOS>ATOM
      1 N         138.1851  139.8529  162.1925 N.3     1  UNL1       -0.2710
      2 C         138.5365  140.6684  160.9836 C.3     1  UNL1        0.0735
      3 C         138.3763  142.1595  161.0123 C.3     1  UNL1        0.0331
      4 C         137.8648  142.8351  162.2500 C.3     1  UNL1        0.0570
      5 C         137.5135  142.0196  163.4589 C.3     1  UNL1        0.0331
      6 C         137.6736  140.5285  163.4301 C.3     1  UNL1        0.0735
      7 N         137.7047  144.3263  162.2788 N.3     1  UNL1       -0.2947
      8 H         136.8574  144.5212  162.8122 H       1  UNL1        0.1235
      9 C         138.7887  145.1860  162.8584 C.3     1  UNL1        0.0972
     10 C         140.2286  144.8345  162.6278 C.ar    1  UNL1        0.0137
     11 C         140.8197  144.9565  161.2546 C.ar    1  UNL1        0.0991
     12 N         142.2596  144.6051  161.0239 N.ar    1  UNL1       -0.2099
     13 C         143.1084  144.1316  162.1665 C.ar    1  UNL1        0.2348
     14 C         142.5172  144.0096  163.5397 C.ar    1  UNL1        0.1212
     15 C         141.0773  144.3611  163.7703 C.ar    1  UNL1        0.0136
     16 O         144.5482  143.7802  161.9359 O.3     1  UNL1       -0.4557
     17 C         144.9070  142.6583  161.0070 C.3     1  UNL1        0.2543
     18 C         143.3659  143.5362  164.6823 C.1     1  UNL1        0.1051
     19 N         144.2147  143.0626  165.8249 N.1     1  UNL1       -0.1907
     20 C         138.3452  138.3617  162.1637 C.3     1  UNL1        0.0970
     21 C         139.2492  137.6852  163.1512 C.3     1  UNL1        0.1264
     22 C         142.8396  138.1177  160.4732 C.ar    1  UNL1        0.1593
     23 C         144.0665  138.8220  160.9717 C.ar    1  UNL1        0.1357
     24 N         144.0967  139.3822  162.3629 N.ar    1  UNL1       -0.2392
     25 C         142.8999  139.2380  163.2555 C.ar    1  UNL1        0.0975
     26 C         142.9301  139.7982  164.6467 C.ar    1  UNL1        0.0255
     27 C         141.7333  139.6541  165.5394 C.ar    1  UNL1        0.0623
     28 C         140.5063  138.9497  165.0409 C.ar    1  UNL1        0.2611
     29 O         139.3095  138.8056  165.9335 O.2     1  UNL1       -0.2670
     30 N         140.4761  138.3896  163.6497 N.ar    1  UNL1       -0.2926
     31 C         141.6730  138.5337  162.7570 C.ar    1  UNL1        0.0832
     32 C         141.6428  137.9736  161.3659 C.ar    1  UNL1        0.0573
     33 C         141.7687  138.0244  158.1080 C.3     1  UNL1        0.2525
     34 O         142.8094  137.5575  159.0821 O.3     1  UNL1       -0.4698
@<TRIPOS>BOND
     1    33    34    1
     2    34    22    1
     3    22    23   ar
     4    23    24   ar
     5    24    25   ar
     6    25    26   ar
     7    26    27   ar
     8    27    28   ar
     9    28    29    2
    10    28    30   ar
    11    30    21    1
    12    21    20    1
    13    20     1    1
    14     1     2    1
    15     2     3    1
    16     3     4    1
    17     4     7    1
    18     7     9    1
    19     9    10    1
    20    10    11   ar
    21    11    12   ar
    22    12    13   ar
    23    13    16    1
    24    16    17    1
    25    13    14   ar
    26    14    18    1
    27    18    19    3
    28    14    15   ar
    29     4     5    1
    30     5     6    1
    31    30    31   ar
    32    31    32   ar
    33    32    22   ar
    34    31    25   ar
    35     6     1    1
    36    15    10   ar
    37     7     8    1
@<TRIPOS>MOLECULE
*****
 34 37 0 0 0
SMALL
GASTEIGER

@<TRIPOS>ATOM
      1 N         142.8728  143.4751  161.3752 N.3     1  UNL1       -0.2710
      2 C         141.4621  143.2214  160.9331 C.3     1  UNL1        0.0735
      3 C         140.3195  143.8528  161.6718 C.3     1  UNL1        0.0331
      4 C         140.5876  144.7379  162.8528 C.3     1  UNL1        0.0570
      5 C         141.9983  144.9916  163.2949 C.3     1  UNL1        0.0331
      6 C         143.1409  144.3602  162.5562 C.3     1  UNL1        0.0735
      7 N         139.4450  145.3693  163.5916 N.3     1  UNL1       -0.2947
      8 H         138.6238  145.2836  162.9927 H       1  UNL1        0.1235
      9 C         139.0503  144.8543  164.9440 C.3     1  UNL1        0.0972
     10 C         139.1610  143.3902  165.2506 C.ar    1  UNL1        0.0137
     11 C         138.1586  142.4277  164.6861 C.ar    1  UNL1        0.0991
     12 N         138.2693  140.9636  164.9927 N.ar    1  UNL1       -0.2099
     13 C         139.3826  140.4619  165.8639 C.ar    1  UNL1        0.2348
     14 C         140.3850  141.4244  166.4285 C.ar    1  UNL1        0.1212
     15 C         140.2742  142.8886  166.1218 C.ar    1  UNL1        0.0136
     16 O         139.4933  138.9978  166.1706 O.3     1  UNL1       -0.4557
     17 C         138.5394  138.0256  165.5422 C.3     1  UNL1        0.2543
     18 C         141.4983  140.9227  167.2997 C.1     1  UNL1        0.1051
     19 N         142.6116  140.4211  168.1709 N.1     1  UNL1       -0.1907
     20 C         144.0154  142.8437  160.6364 C.3     1  UNL1        0.0970
     21 C         144.2094  141.3571  160.6843 C.3     1  UNL1        0.1264
     22 C         140.7034  138.5573  161.0299 C.ar    1  UNL1        0.1593
     23 C         140.4633  137.8104  162.3083 C.ar    1  UNL1        0.1357
     24 N         141.3919  137.9967  163.4716 N.ar    1  UNL1       -0.2392
     25 C         142.5605  138.9299  163.3564 C.ar    1  UNL1        0.0975
     26 C         143.4890  139.1163  164.5196 C.ar    1  UNL1        0.0255
     27 C         144.6576  140.0495  164.4044 C.ar    1  UNL1        0.0623
     28 C         144.8978  140.7965  163.1259 C.ar    1  UNL1        0.2611
     29 O         146.0664  141.7297  163.0108 O.2     1  UNL1       -0.2670
     30 N         143.9693  140.6102  161.9627 N.ar    1  UNL1       -0.2926
     31 C         142.8006  139.6768  162.0779 C.ar    1  UNL1        0.0832
     32 C         141.8721  139.4905  160.9147 C.ar    1  UNL1        0.0573
     33 C         138.9098  139.5073  159.4080 C.3     1  UNL1        0.2525
     34 O         139.7749  138.3710  159.8666 O.3     1  UNL1       -0.4698
@<TRIPOS>BOND
     1    33    34    1
     2    34    22    1
     3    22    23   ar
     4    23    24   ar
     5    24    25   ar
     6    25    26   ar
     7    26    27   ar
     8    27    28   ar
     9    28    29    2
    10    28    30   ar
    11    30    21    1
    12    21    20    1
    13    20     1    1
    14     1     2    1
    15     2     3    1
    16     3     4    1
    17     4     7    1
    18     7     9    1
    19     9    10    1
    20    10    11   ar
    21    11    12   ar
    22    12    13   ar
    23    13    16    1
    24    16    17    1
    25    13    14   ar
    26    14    18    1
    27    18    19    3
    28    14    15   ar
    29     4     5    1
    30     5     6    1
    31    30    31   ar
    32    31    32   ar
    33    32    22   ar
    34    31    25   ar
    35     6     1    1
    36    15    10   ar
    37     7     8    1
@<TRIPOS>MOLECULE
*****
 34 37 0 0 0
SMALL
GASTEIGER

@<TRIPOS>ATOM
      1 N         141.6995  144.5668  162.9565 N.3     1  UNL1       -0.2710
      2 C         142.1856  143.8677  161.7216 C.3     1  UNL1        0.0735
      3 C         143.4983  143.1422  161.7380 C.3     1  UNL1        0.0331
      4 C         144.3250  143.1157  162.9893 C.3     1  UNL1        0.0570
      5 C         143.8389  143.8148  164.2242 C.3     1  UNL1        0.0331
      6 C         142.5262  144.5404  164.2078 C.3     1  UNL1        0.0735
      7 N         145.6377  142.3901  163.0057 N.3     1  UNL1       -0.2947
      8 H         146.2722  142.9424  163.5827 H       1  UNL1        0.1235
      9 C         145.7089  140.9799  163.5118 C.3     1  UNL1        0.0972
     10 C         144.5745  140.0328  163.2550 C.ar    1  UNL1        0.0137
     11 C         143.7007  139.5841  164.3887 C.ar    1  UNL1        0.0991
     12 N         142.5663  138.6370  164.1320 N.ar    1  UNL1       -0.2099
     13 C         142.3056  138.1384  162.7414 C.ar    1  UNL1        0.2348
     14 C         143.1794  138.5870  161.6077 C.ar    1  UNL1        0.1212
     15 C         144.3138  139.5342  161.8646 C.ar    1  UNL1        0.0136
     16 O         141.1712  137.1913  162.4846 O.3     1  UNL1       -0.4557
     17 C         139.8544  137.3937  163.1741 C.3     1  UNL1        0.2543
     18 C         142.9187  138.0885  160.2172 C.1     1  UNL1        0.1051
     19 N         142.6581  137.5900  158.8267 N.1     1  UNL1       -0.1907
     20 C         140.3868  145.2924  162.9400 C.3     1  UNL1        0.0970
     21 C         139.2830  144.8668  163.8624 C.3     1  UNL1        0.1264
     22 C         140.4185  142.3704  167.4300 C.ar    1  UNL1        0.1593
     23 C         140.0110  140.9284  167.4966 C.ar    1  UNL1        0.1357
     24 N         139.2249  140.3185  166.3741 N.ar    1  UNL1       -0.2392
     25 C         138.8464  141.1506  165.1849 C.ar    1  UNL1        0.0975
     26 C         138.0603  140.5408  164.0623 C.ar    1  UNL1        0.0255
     27 C         137.6818  141.3729  162.8731 C.ar    1  UNL1        0.0623
     28 C         138.0894  142.8150  162.8064 C.ar    1  UNL1        0.2611
     29 O         137.7109  143.6471  161.6172 O.2     1  UNL1       -0.2670
     30 N         138.8755  143.4248  163.9290 N.ar    1  UNL1       -0.2926
     31 C         139.2540  142.5926  165.1182 C.ar    1  UNL1        0.0832
     32 C         140.0400  143.2025  166.2408 C.ar    1  UNL1        0.0573
     33 C         142.5618  142.4420  168.8968 C.3     1  UNL1        0.2525
     34 O         141.2046  142.9802  168.5526 O.3     1  UNL1       -0.4698
@<TRIPOS>BOND
     1    33    34    1
     2    34    22    1
     3    22    23   ar
     4    23    24   ar
     5    24    25   ar
     6    25    26   ar
     7    26    27   ar
     8    27    28   ar
     9    28    29    2
    10    28    30   ar
    11    30    21    1
    12    21    20    1
    13    20     1    1
    14     1     2    1
    15     2     3    1
    16     3     4    1
    17     4     7    1
    18     7     9    1
    19     9    10    1
    20    10    11   ar
    21    11    12   ar
    22    12    13   ar
    23    13    16    1
    24    16    17    1
    25    13    14   ar
    26    14    18    1
    27    18    19    3
    28    14    15   ar
    29     4     5    1
    30     5     6    1
    31    30    31   ar
    32    31    32   ar
    33    32    22   ar
    34    31    25   ar
    35     6     1    1
    36    15    10   ar
    37     7     8    1
