@<TRIPOS>MOLECULE
*****
 33 37 0 0 0
SMALL
GASTEIGER

@<TRIPOS>ATOM
      1 C         140.2192  140.6628  170.5154 C.3     1  UNL1        0.0438
      2 C         140.6494  141.2583  169.2075 C.3     1  UNL1        0.1398
      3 C         141.5079  142.0497  170.1490 C.3     1  UNL1        0.0438
      4 O         141.3777  142.1286  168.2266 O.3     1  UNL1       -0.4826
      5 C         141.0981  142.0007  166.7585 C.ar    1  UNL1        0.1361
      6 C         141.8264  142.8710  165.7777 C.ar    1  UNL1        0.0379
      7 C         141.5468  142.7431  164.3096 C.ar    1  UNL1        0.0178
      8 C         140.5388  141.7447  163.8222 C.ar    1  UNL1        0.0505
      9 C         139.8105  140.8744  164.8031 C.ar    1  UNL1        0.0153
     10 C         140.0901  141.0024  166.2713 C.ar    1  UNL1        0.0369
     11 C         139.3618  140.1320  167.2521 C.3     1  UNL1        0.1581
     12 C         138.9789  139.8920  165.8218 C.3     1  UNL1        0.2351
     13 O         137.9402  138.8100  165.7953 O.2     1  UNL1       -0.4478
     14 C         137.6812  138.3814  167.2092 C.2     1  UNL1        0.2770
     15 N         136.7135  137.3219  167.6461 N.pl3   1  UNL1       -0.3133
     16 N         138.5598  139.1985  168.1096 N.2     1  UNL1       -0.2202
     17 C         139.6414  140.2600  168.7202 C.3     1  UNL1        0.1141
     18 C         139.8446  140.5028  168.4466 C.3     1  UNL1        0.1501
     19 O         139.6310  140.2476  168.7342 O.3     1  UNL1       -0.3532
     20 C         139.8446  140.5028  168.4466 C.3     1  UNL1        0.1501
     21 H         136.1783  136.8377  166.9764 H       1  UNL1        0.1466
     22 H         136.6135  137.1106  168.6024 H       1  UNL1        0.1466
     23 N         140.2592  141.6168  162.3541 N.am    1  UNL1       -0.2791
     24 C         139.0292  142.2437  161.7674 C.2     1  UNL1        0.2672
     25 O         138.0789  142.9986  162.6489 O.2     1  UNL1       -0.2682
     26 H         140.8829  141.1213  161.7756 H       1  UNL1        0.1552
     27 C         138.7496  142.1158  160.2993 C.ar    1  UNL1        0.1348
     28 C         138.2440  140.8180  159.7425 C.ar    1  UNL1        0.0246
     29 C         137.9644  140.6900  158.2743 C.ar    1  UNL1        0.0147
     30 C         138.1903  141.8598  157.3630 C.ar    1  UNL1        0.0768
     31 CL        137.9107  141.7319  155.8949 Cl      1  UNL1       -0.0806
     32 C         138.6959  143.1577  157.9199 C.ar    1  UNL1        0.1103
     33 N         138.9755  143.2856  159.3881 N.ar    1  UNL1       -0.2384
@<TRIPOS>BOND
     1     1     2    1
     2     2     3    1
     3     2     4    1
     4     4     5    1
     5     5     6   ar
     6     6     7   ar
     7     7     8   ar
     8     8    23    1
     9    23    24   am
    10    24    25    2
    11    24    27    1
    12    27    28   ar
    13    28    29   ar
    14    29    30   ar
    15    30    31    1
    16    30    32   ar
    17    32    33   ar
    18     8     9   ar
    19     9    10   ar
    20    10    11    1
    21    11    12    1
    22    12    13    1
    23    13    14    1
    24    14    15    1
    25    14    16    2
    26    11    17    1
    27    17    18    1
    28    18    19    1
    29    19    20    1
    30    17     2    1
    31    10     5   ar
    32    16    11    1
    33    20    17    1
    34    33    27   ar
    35    23    26    1
    36    15    21    1
    37    15    22    1
@<TRIPOS>MOLECULE
*****
 33 37 0 0 0
SMALL
GASTEIGER

@<TRIPOS>ATOM
      1 C         140.0364  141.1570  170.1920 C.3     1  UNL1        0.0438
      2 C         140.6425  141.4384  168.8490 C.3     1  UNL1        0.1398
      3 C         141.4387  142.3849  169.6976 C.3     1  UNL1        0.0438
      4 O         141.5250  142.0486  167.8008 O.3     1  UNL1       -0.4826
      5 C         141.4009  141.6145  166.3703 C.ar    1  UNL1        0.1361
      6 C         142.2835  142.2247  165.3221 C.ar    1  UNL1        0.0379
      7 C         142.1593  141.7907  163.8917 C.ar    1  UNL1        0.0178
      8 C         141.1526  140.7464  163.5094 C.ar    1  UNL1        0.0505
      9 C         140.2700  140.1362  164.5576 C.ar    1  UNL1        0.0153
     10 C         140.3942  140.5703  165.9881 C.ar    1  UNL1        0.0369
     11 C         139.5116  139.9602  167.0364 C.3     1  UNL1        0.1581
     12 C         139.2741  139.4286  165.6539 C.3     1  UNL1        0.2351
     13 O         138.1813  138.4040  165.7326 O.2     1  UNL1       -0.4478
     14 C         137.7434  138.3024  167.1637 C.2     1  UNL1        0.2770
     15 N         136.6716  137.3978  167.6956 N.pl3   1  UNL1       -0.3133
     16 N         138.5656  139.2641  167.9694 N.2     1  UNL1       -0.2202
     17 C         139.6358  140.3942  168.4668 C.3     1  UNL1        0.1141
     18 C         139.8820  140.5644  168.1743 C.3     1  UNL1        0.1501
     19 O         139.6232  140.3855  168.4817 O.3     1  UNL1       -0.3532
     20 C         139.8820  140.5644  168.1743 C.3     1  UNL1        0.1501
     21 H         136.1849  136.7988  167.0844 H       1  UNL1        0.1466
     22 H         136.4549  137.4031  168.6559 H       1  UNL1        0.1466
     23 N         141.0285  140.3124  162.0790 N.am    1  UNL1       -0.2791
     24 C         141.6452  139.0205  161.6310 C.2     1  UNL1        0.2672
     25 O         142.3861  138.1626  162.6135 O.2     1  UNL1       -0.2682
     26 H         140.5422  140.8754  161.4342 H       1  UNL1        0.1552
     27 C         141.5211  138.5864  160.2006 C.ar    1  UNL1        0.1348
     28 C         140.2097  138.7255  159.4858 C.ar    1  UNL1        0.0246
     29 C         140.0855  138.2914  158.0553 C.ar    1  UNL1        0.0147
     30 C         141.2727  137.7183  157.3396 C.ar    1  UNL1        0.0768
     31 CL        141.1486  137.2843  155.9092 Cl      1  UNL1       -0.0806
     32 C         142.5841  137.5793  158.0545 C.ar    1  UNL1        0.1103
     33 N         142.7083  138.0133  159.4850 N.ar    1  UNL1       -0.2384
@<TRIPOS>BOND
     1     1     2    1
     2     2     3    1
     3     2     4    1
     4     4     5    1
     5     5     6   ar
     6     6     7   ar
     7     7     8   ar
     8     8    23    1
     9    23    24   am
    10    24    25    2
    11    24    27    1
    12    27    28   ar
    13    28    29   ar
    14    29    30   ar
    15    30    31    1
    16    30    32   ar
    17    32    33   ar
    18     8     9   ar
    19     9    10   ar
    20    10    11    1
    21    11    12    1
    22    12    13    1
    23    13    14    1
    24    14    15    1
    25    14    16    2
    26    11    17    1
    27    17    18    1
    28    18    19    1
    29    19    20    1
    30    17     2    1
    31    10     5   ar
    32    16    11    1
    33    20    17    1
    34    33    27   ar
    35    23    26    1
    36    15    21    1
    37    15    22    1
@<TRIPOS>MOLECULE
*****
 33 37 0 0 0
SMALL
GASTEIGER

@<TRIPOS>ATOM
      1 C         142.0781  141.1078  169.7790 C.3     1  UNL1        0.0438
      2 C         142.7091  141.8015  168.6081 C.3     1  UNL1        0.1398
      3 C         143.6655  142.1992  169.6931 C.3     1  UNL1        0.0438
      4 O         143.6723  142.6334  167.8142 O.3     1  UNL1       -0.4826
      5 C         143.4599  142.8265  166.3420 C.ar    1  UNL1        0.1361
      6 C         144.4231  143.6584  165.5481 C.ar    1  UNL1        0.0379
      7 C         144.2108  143.8515  164.0758 C.ar    1  UNL1        0.0178
      8 C         143.0352  143.2128  163.3974 C.ar    1  UNL1        0.0505
      9 C         142.0720  142.3810  164.1913 C.ar    1  UNL1        0.0153
     10 C         142.2844  142.1878  165.6637 C.ar    1  UNL1        0.0369
     11 C         141.3212  141.3560  166.4576 C.3     1  UNL1        0.1581
     12 C         140.9809  141.4593  165.0003 C.3     1  UNL1        0.2351
     13 O         139.7289  140.6690  164.7595 O.2     1  UNL1       -0.4478
     14 C         139.2954  140.0772  166.0679 C.2     1  UNL1        0.2770
     15 N         138.0896  139.2127  166.2881 N.pl3   1  UNL1       -0.3133
     16 N         140.2795  140.5018  167.1174 N.2     1  UNL1       -0.2202
     17 C         141.5336  141.1628  167.9298 C.3     1  UNL1        0.1141
     18 C         141.8023  141.3949  167.7083 C.3     1  UNL1        0.1501
     19 O         141.5198  141.1510  167.9412 O.3     1  UNL1       -0.3532
     20 C         141.8023  141.3949  167.7083 C.3     1  UNL1        0.1501
     21 H         137.5005  138.9877  165.5321 H       1  UNL1        0.1466
     22 H         137.8873  138.8702  167.1887 H       1  UNL1        0.1466
     23 N         142.8229  143.4060  161.9252 N.am    1  UNL1       -0.2791
     24 C         141.8655  144.4523  161.4364 C.2     1  UNL1        0.2672
     25 O         141.1206  145.3054  162.4199 O.2     1  UNL1       -0.2682
     26 H         143.3118  142.8461  161.2797 H       1  UNL1        0.1552
     27 C         141.6532  144.6455  159.9641 C.ar    1  UNL1        0.1348
     28 C         140.4361  145.3701  159.4707 C.ar    1  UNL1        0.0246
     29 C         140.2237  145.5633  157.9984 C.ar    1  UNL1        0.0147
     30 C         141.2284  145.0318  157.0196 C.ar    1  UNL1        0.0768
     31 CL        141.0161  145.2250  155.5473 Cl      1  UNL1       -0.0806
     32 C         142.4456  144.3071  157.5131 C.ar    1  UNL1        0.1103
     33 N         142.6579  144.1140  158.9853 N.ar    1  UNL1       -0.2384
@<TRIPOS>BOND
     1     1     2    1
     2     2     3    1
     3     2     4    1
     4     4     5    1
     5     5     6   ar
     6     6     7   ar
     7     7     8   ar
     8     8    23    1
     9    23    24   am
    10    24    25    2
    11    24    27    1
    12    27    28   ar
    13    28    29   ar
    14    29    30   ar
    15    30    31    1
    16    30    32   ar
    17    32    33   ar
    18     8     9   ar
    19     9    10   ar
    20    10    11    1
    21    11    12    1
    22    12    13    1
    23    13    14    1
    24    14    15    1
    25    14    16    2
    26    11    17    1
    27    17    18    1
    28    18    19    1
    29    19    20    1
    30    17     2    1
    31    10     5   ar
    32    16    11    1
    33    20    17    1
    34    33    27   ar
    35    23    26    1
    36    15    21    1
    37    15    22    1
@<TRIPOS>MOLECULE
*****
 33 37 0 0 0
SMALL
GASTEIGER

@<TRIPOS>ATOM
      1 C         139.7245  140.0459  167.0190 C.3     1  UNL1        0.0438
      2 C         139.9120  141.3269  166.2613 C.3     1  UNL1        0.1398
      3 C         140.3113  141.7762  167.6355 C.3     1  UNL1        0.0438
      4 O         140.2381  142.7639  165.9809 O.3     1  UNL1       -0.4826
      5 C         140.0999  143.3067  164.5894 C.ar    1  UNL1        0.1361
      6 C         140.4260  144.7437  164.3090 C.ar    1  UNL1        0.0379
      7 C         140.2878  145.2864  162.9175 C.ar    1  UNL1        0.0178
      8 C         139.8233  144.3921  161.8063 C.ar    1  UNL1        0.0505
      9 C         139.4972  142.9551  162.0867 C.ar    1  UNL1        0.0153
     10 C         139.6355  142.4124  163.4783 C.ar    1  UNL1        0.0369
     11 C         139.3093  140.9754  163.7587 C.3     1  UNL1        0.1581
     12 C         139.1241  141.3744  162.3246 C.3     1  UNL1        0.2351
     13 O         138.6488  140.1706  161.5662 O.2     1  UNL1       -0.4478
     14 C         138.5404  139.0277  162.5314 C.2     1  UNL1        0.2770
     15 N         138.1009  137.6324  162.1999 N.pl3   1  UNL1       -0.3133
     16 N         138.9486  139.5250  163.8865 N.2     1  UNL1       -0.2202
     17 C         139.4476  140.4326  165.1502 C.3     1  UNL1        0.1141
     18 C         139.5386  140.8336  165.0720 C.3     1  UNL1        0.1501
     19 O         139.4429  140.4121  165.1542 O.3     1  UNL1       -0.3532
     20 C         139.5386  140.8336  165.0720 C.3     1  UNL1        0.1501
     21 H         137.8514  137.4013  161.2760 H       1  UNL1        0.1466
     22 H         138.0619  136.9476  162.9062 H       1  UNL1        0.1466
     23 N         139.6851  144.9349  160.4149 N.am    1  UNL1       -0.2791
     24 C         140.8866  145.0222  159.5210 C.2     1  UNL1        0.2672
     25 O         142.2263  144.5668  160.0188 O.2     1  UNL1       -0.2682
     26 H         138.8058  145.2338  160.0882 H       1  UNL1        0.1552
     27 C         140.7483  145.5650  158.1296 C.ar    1  UNL1        0.1348
     28 C         141.7591  145.2066  157.0809 C.ar    1  UNL1        0.0246
     29 C         141.6209  145.7493  155.6893 C.ar    1  UNL1        0.0147
     30 C         140.4718  146.6505  155.3465 C.ar    1  UNL1        0.0768
     31 CL        140.3336  147.1932  153.9550 Cl      1  UNL1       -0.0806
     32 C         139.4610  147.0089  156.3953 C.ar    1  UNL1        0.1103
     33 N         139.5992  146.4661  157.7867 N.ar    1  UNL1       -0.2384
@<TRIPOS>BOND
     1     1     2    1
     2     2     3    1
     3     2     4    1
     4     4     5    1
     5     5     6   ar
     6     6     7   ar
     7     7     8   ar
     8     8    23    1
     9    23    24   am
    10    24    25    2
    11    24    27    1
    12    27    28   ar
    13    28    29   ar
    14    29    30   ar
    15    30    31    1
    16    30    32   ar
    17    32    33   ar
    18     8     9   ar
    19     9    10   ar
    20    10    11    1
    21    11    12    1
    22    12    13    1
    23    13    14    1
    24    14    15    1
    25    14    16    2
    26    11    17    1
    27    17    18    1
    28    18    19    1
    29    19    20    1
    30    17     2    1
    31    10     5   ar
    32    16    11    1
    33    20    17    1
    34    33    27   ar
    35    23    26    1
    36    15    21    1
    37    15    22    1
@<TRIPOS>MOLECULE
*****
 33 37 0 0 0
SMALL
GASTEIGER

@<TRIPOS>ATOM
      1 C         142.3184  141.8170  168.2114 C.3     1  UNL1        0.0438
      2 C         141.3461  142.4629  167.2691 C.3     1  UNL1        0.1398
      3 C         140.5060  142.4037  168.5103 C.3     1  UNL1        0.0438
      4 O         140.0821  143.0881  166.7580 O.3     1  UNL1       -0.4826
      5 C         139.9959  143.5483  165.3329 C.ar    1  UNL1        0.1361
      6 C         138.7319  144.1735  164.8218 C.ar    1  UNL1        0.0379
      7 C         138.6457  144.6336  163.3968 C.ar    1  UNL1        0.0178
      8 C         139.8236  144.4685  162.4828 C.ar    1  UNL1        0.0505
      9 C         141.0876  143.8433  162.9939 C.ar    1  UNL1        0.0153
     10 C         141.1738  143.3831  164.4190 C.ar    1  UNL1        0.0369
     11 C         142.4378  142.7579  164.9301 C.3     1  UNL1        0.1581
     12 C         142.4995  143.1678  163.4885 C.3     1  UNL1        0.2351
     13 O         143.8607  142.8171  162.9647 O.2     1  UNL1       -0.4478
     14 C         144.6402  142.1904  164.0826 C.2     1  UNL1        0.2770
     15 N         146.0514  141.6885  164.0002 N.pl3   1  UNL1       -0.3133
     16 N         143.7608  142.1538  165.2973 N.2     1  UNL1       -0.2202
     17 C         142.5240  142.2977  166.3552 C.3     1  UNL1        0.1141
     18 C         142.1713  142.4722  166.2126 C.3     1  UNL1        0.1501
     19 O         142.5420  142.2888  166.3625 O.3     1  UNL1       -0.3532
     20 C         142.1713  142.4722  166.2126 C.3     1  UNL1        0.1501
     21 H         146.5495  141.7568  163.1538 H       1  UNL1        0.1466
     22 H         146.4794  141.2908  164.7926 H       1  UNL1        0.1466
     23 N         139.7374  144.9286  161.0577 N.am    1  UNL1       -0.2791
     24 C         140.0045  143.9638  159.9406 C.2     1  UNL1        0.2672
     25 O         140.3577  142.5389  160.2486 O.2     1  UNL1       -0.2682
     26 H         139.5056  145.8639  160.8556 H       1  UNL1        0.1552
     27 C         139.9183  144.4240  158.5155 C.ar    1  UNL1        0.1348
     28 C         139.3972  143.4964  157.4582 C.ar    1  UNL1        0.0246
     29 C         139.3110  143.9565  156.0330 C.ar    1  UNL1        0.0147
     30 C         139.7459  145.3442  155.6653 C.ar    1  UNL1        0.0768
     31 CL        139.6597  145.8043  154.2403 Cl      1  UNL1       -0.0806
     32 C         140.2670  146.2718  156.7228 C.ar    1  UNL1        0.1103
     33 N         140.3532  145.8117  158.1479 N.ar    1  UNL1       -0.2384
@<TRIPOS>BOND
     1     1     2    1
     2     2     3    1
     3     2     4    1
     4     4     5    1
     5     5     6   ar
     6     6     7   ar
     7     7     8   ar
     8     8    23    1
     9    23    24   am
    10    24    25    2
    11    24    27    1
    12    27    28   ar
    13    28    29   ar
    14    29    30   ar
    15    30    31    1
    16    30    32   ar
    17    32    33   ar
    18     8     9   ar
    19     9    10   ar
    20    10    11    1
    21    11    12    1
    22    12    13    1
    23    13    14    1
    24    14    15    1
    25    14    16    2
    26    11    17    1
    27    17    18    1
    28    18    19    1
    29    19    20    1
    30    17     2    1
    31    10     5   ar
    32    16    11    1
    33    20    17    1
    34    33    27   ar
    35    23    26    1
    36    15    21    1
    37    15    22    1
@<TRIPOS>MOLECULE
*****
 33 37 0 0 0
SMALL
GASTEIGER

@<TRIPOS>ATOM
      1 C         143.9279  143.9878  164.7850 C.3     1  UNL1        0.0438
      2 C         143.9003  143.6803  163.3170 C.3     1  UNL1        0.1398
      3 C         143.8829  145.1794  163.2696 C.3     1  UNL1        0.0438
      4 O         143.8667  143.8934  161.8326 O.3     1  UNL1       -0.4826
      5 C         143.8601  142.7143  160.9055 C.ar    1  UNL1        0.1361
      6 C         143.8265  142.9275  159.4212 C.ar    1  UNL1        0.0379
      7 C         143.8198  141.7483  158.4941 C.ar    1  UNL1        0.0178
      8 C         143.8468  140.3559  159.0514 C.ar    1  UNL1        0.0505
      9 C         143.8804  140.1427  160.5358 C.ar    1  UNL1        0.0153
     10 C         143.8871  141.3220  161.4629 C.ar    1  UNL1        0.0369
     11 C         143.9207  141.1088  162.9473 C.3     1  UNL1        0.1581
     12 C         143.9177  139.8391  162.1485 C.3     1  UNL1        0.2351
     13 O         143.9505  138.6872  163.1088 O.2     1  UNL1       -0.4478
     14 C         143.9738  139.2449  164.5011 C.2     1  UNL1        0.2770
     15 N         144.0093  138.4463  165.7703 N.pl3   1  UNL1       -0.3133
     16 N         143.9553  140.7416  164.4012 N.2     1  UNL1       -0.2202
     17 C         143.9273  142.2879  163.8743 C.3     1  UNL1        0.1141
     18 C         143.9179  142.3474  163.4602 C.3     1  UNL1        0.1501
     19 O         143.9278  142.2849  163.8955 O.3     1  UNL1       -0.3532
     20 C         143.9179  142.3474  163.4602 C.3     1  UNL1        0.1501
     21 H         144.0192  137.4626  165.7328 H       1  UNL1        0.1466
     22 H         144.0226  138.9059  166.6408 H       1  UNL1        0.1466
     23 N         143.8402  139.1767  158.1243 N.am    1  UNL1       -0.2791
     24 C         142.5400  138.5443  157.7245 C.2     1  UNL1        0.2672
     25 O         141.2466  139.0910  158.2519 O.2     1  UNL1       -0.2682
     26 H         144.6891  138.8179  157.7782 H       1  UNL1        0.1552
     27 C         142.5334  137.3651  156.7975 C.ar    1  UNL1        0.1348
     28 C         141.2315  136.7586  156.3649 C.ar    1  UNL1        0.0246
     29 C         141.2248  135.5793  155.4377 C.ar    1  UNL1        0.0147
     30 C         142.5201  135.0068  154.9433 C.ar    1  UNL1        0.0768
     31 CL        142.5134  133.8276  154.0162 Cl      1  UNL1       -0.0806
     32 C         143.8220  135.6134  155.3759 C.ar    1  UNL1        0.1103
     33 N         143.8286  136.7925  156.3030 N.ar    1  UNL1       -0.2384
@<TRIPOS>BOND
     1     1     2    1
     2     2     3    1
     3     2     4    1
     4     4     5    1
     5     5     6   ar
     6     6     7   ar
     7     7     8   ar
     8     8    23    1
     9    23    24   am
    10    24    25    2
    11    24    27    1
    12    27    28   ar
    13    28    29   ar
    14    29    30   ar
    15    30    31    1
    16    30    32   ar
    17    32    33   ar
    18     8     9   ar
    19     9    10   ar
    20    10    11    1
    21    11    12    1
    22    12    13    1
    23    13    14    1
    24    14    15    1
    25    14    16    2
    26    11    17    1
    27    17    18    1
    28    18    19    1
    29    19    20    1
    30    17     2    1
    31    10     5   ar
    32    16    11    1
    33    20    17    1
    34    33    27   ar
    35    23    26    1
    36    15    21    1
    37    15    22    1
@<TRIPOS>MOLECULE
*****
 33 37 0 0 0
SMALL
GASTEIGER

@<TRIPOS>ATOM
      1 C         142.5966  142.0864  168.0940 C.3     1  UNL1        0.0438
      2 C         141.5145  142.5051  167.1432 C.3     1  UNL1        0.1398
      3 C         140.7538  142.5403  168.4354 C.3     1  UNL1        0.0438
      4 O         140.1683  142.9360  166.6412 O.3     1  UNL1       -0.4826
      5 C         139.9586  143.1863  165.1772 C.ar    1  UNL1        0.1361
      6 C         138.6123  143.6172  164.6752 C.ar    1  UNL1        0.0379
      7 C         138.4027  143.8674  163.2112 C.ar    1  UNL1        0.0178
      8 C         139.5392  143.6868  162.2491 C.ar    1  UNL1        0.0505
      9 C         140.8855  143.2560  162.7511 C.ar    1  UNL1        0.0153
     10 C         141.0951  143.0057  164.2152 C.ar    1  UNL1        0.0369
     11 C         142.4414  142.5748  164.7171 C.3     1  UNL1        0.1581
     12 C         142.3827  142.7868  163.2333 C.3     1  UNL1        0.2351
     13 O         143.7414  142.4935  162.6690 O.2     1  UNL1       -0.4478
     14 C         144.6396  142.1002  163.8041 C.2     1  UNL1        0.2770
     15 N         146.0871  141.7230  163.6929 N.pl3   1  UNL1       -0.3133
     16 N         143.8362  142.1505  165.0699 N.2     1  UNL1       -0.2202
     17 C         142.6511  142.3245  166.1811 C.3     1  UNL1        0.1141
     18 C         142.2755  142.4447  166.0411 C.3     1  UNL1        0.1501
     19 O         142.6703  142.3184  166.1883 O.3     1  UNL1       -0.3532
     20 C         142.2755  142.4447  166.0411 C.3     1  UNL1        0.1501
     21 H         146.5288  141.7197  162.8131 H       1  UNL1        0.1466
     22 H         146.5955  141.4787  164.4998 H       1  UNL1        0.1466
     23 N         139.3296  143.9371  160.7851 N.am    1  UNL1       -0.2791
     24 C         139.0088  142.7948  159.8673 C.2     1  UNL1        0.2672
     25 O         138.8978  141.4022  160.4136 O.2     1  UNL1       -0.2682
     26 H         139.4024  144.8511  160.4266 H       1  UNL1        0.1552
     27 C         138.7991  143.0451  158.4033 C.ar    1  UNL1        0.1348
     28 C         139.7488  143.9286  157.6499 C.ar    1  UNL1        0.0246
     29 C         139.5391  144.1789  156.1859 C.ar    1  UNL1        0.0147
     30 C         138.3798  143.5457  155.4752 C.ar    1  UNL1        0.0768
     31 CL        138.1701  143.7960  154.0112 Cl      1  UNL1       -0.0806
     32 C         137.4302  142.6621  156.2286 C.ar    1  UNL1        0.1103
     33 N         137.6398  142.4119  157.6926 N.ar    1  UNL1       -0.2384
@<TRIPOS>BOND
     1     1     2    1
     2     2     3    1
     3     2     4    1
     4     4     5    1
     5     5     6   ar
     6     6     7   ar
     7     7     8   ar
     8     8    23    1
     9    23    24   am
    10    24    25    2
    11    24    27    1
    12    27    28   ar
    13    28    29   ar
    14    29    30   ar
    15    30    31    1
    16    30    32   ar
    17    32    33   ar
    18     8     9   ar
    19     9    10   ar
    20    10    11    1
    21    11    12    1
    22    12    13    1
    23    13    14    1
    24    14    15    1
    25    14    16    2
    26    11    17    1
    27    17    18    1
    28    18    19    1
    29    19    20    1
    30    17     2    1
    31    10     5   ar
    32    16    11    1
    33    20    17    1
    34    33    27   ar
    35    23    26    1
    36    15    21    1
    37    15    22    1
@<TRIPOS>MOLECULE
*****
 33 37 0 0 0
SMALL
GASTEIGER

@<TRIPOS>ATOM
      1 C         139.5529  143.9920  165.7134 C.3     1  UNL1        0.0438
      2 C         140.7428  143.3270  165.0871 C.3     1  UNL1        0.1398
      3 C         140.7331  142.6413  166.4212 C.3     1  UNL1        0.0438
      4 O         141.9293  142.4238  164.9243 O.3     1  UNL1       -0.4826
      5 C         142.7121  142.4374  163.6449 C.ar    1  UNL1        0.1361
      6 C         143.8986  141.5342  163.4820 C.ar    1  UNL1        0.0379
      7 C         144.6814  141.5478  162.2026 C.ar    1  UNL1        0.0178
      8 C         144.2778  142.4645  161.0860 C.ar    1  UNL1        0.0505
      9 C         143.0913  143.3677  161.2488 C.ar    1  UNL1        0.0153
     10 C         142.3085  143.3541  162.5283 C.ar    1  UNL1        0.0369
     11 C         141.1220  144.2573  162.6912 C.3     1  UNL1        0.1581
     12 C         141.8046  144.3806  161.3612 C.3     1  UNL1        0.2351
     13 O         141.0693  145.4112  160.5566 O.2     1  UNL1       -0.4478
     14 C         139.9323  145.9248  161.3893 C.2     1  UNL1        0.2770
     15 N         138.9374  146.9684  160.9755 N.pl3   1  UNL1       -0.3133
     16 N         139.9648  145.2116  162.7086 N.2     1  UNL1       -0.2202
     17 C         140.3391  144.2437  163.9706 C.3     1  UNL1        0.1141
     18 C         140.6701  143.9917  163.9252 C.3     1  UNL1        0.1501
     19 O         140.3222  144.2566  163.9730 O.3     1  UNL1       -0.3532
     20 C         140.6701  143.9917  163.9252 C.3     1  UNL1        0.1501
     21 H         138.9989  147.3809  160.0837 H       1  UNL1        0.1466
     22 H         138.2229  147.2407  161.5956 H       1  UNL1        0.1466
     23 N         145.0607  142.4781  159.8066 N.am    1  UNL1       -0.2791
     24 C         144.5288  141.7725  158.5943 C.2     1  UNL1        0.2672
     25 O         143.2142  141.0534  158.6616 O.2     1  UNL1       -0.2682
     26 H         145.9235  142.9501  159.7624 H       1  UNL1        0.1552
     27 C         145.3117  141.7861  157.3149 C.ar    1  UNL1        0.1348
     28 C         146.5734  142.5912  157.2163 C.ar    1  UNL1        0.0246
     29 C         147.3564  142.6048  155.9368 C.ar    1  UNL1        0.0147
     30 C         146.8775  141.8133  154.7561 C.ar    1  UNL1        0.0768
     31 CL        147.6603  141.8268  153.4767 Cl      1  UNL1       -0.0806
     32 C         145.6156  141.0081  154.8548 C.ar    1  UNL1        0.1103
     33 N         144.8328  140.9946  156.1342 N.ar    1  UNL1       -0.2384
@<TRIPOS>BOND
     1     1     2    1
     2     2     3    1
     3     2     4    1
     4     4     5    1
     5     5     6   ar
     6     6     7   ar
     7     7     8   ar
     8     8    23    1
     9    23    24   am
    10    24    25    2
    11    24    27    1
    12    27    28   ar
    13    28    29   ar
    14    29    30   ar
    15    30    31    1
    16    30    32   ar
    17    32    33   ar
    18     8     9   ar
    19     9    10   ar
    20    10    11    1
    21    11    12    1
    22    12    13    1
    23    13    14    1
    24    14    15    1
    25    14    16    2
    26    11    17    1
    27    17    18    1
    28    18    19    1
    29    19    20    1
    30    17     2    1
    31    10     5   ar
    32    16    11    1
    33    20    17    1
    34    33    27   ar
    35    23    26    1
    36    15    21    1
    37    15    22    1
@<TRIPOS>MOLECULE
*****
 33 37 0 0 0
SMALL
GASTEIGER

@<TRIPOS>ATOM
      1 C         137.6790  142.8596  164.4234 C.3     1  UNL1        0.0438
      2 C         137.8791  142.6727  162.9485 C.3     1  UNL1        0.1398
      3 C         137.5541  144.1366  162.9840 C.3     1  UNL1        0.0438
      4 O         137.9663  142.9943  161.4860 O.3     1  UNL1       -0.4826
      5 C         138.3091  141.9169  160.5003 C.ar    1  UNL1        0.1361
      6 C         138.3963  142.2385  159.0378 C.ar    1  UNL1        0.0379
      7 C         138.7391  141.1611  158.0521 C.ar    1  UNL1        0.0178
      8 C         138.9946  139.7620  158.5289 C.ar    1  UNL1        0.0505
      9 C         138.9074  139.4404  159.9914 C.ar    1  UNL1        0.0153
     10 C         138.5647  140.5179  160.9771 C.ar    1  UNL1        0.0369
     11 C         138.4775  140.1963  162.4396 C.3     1  UNL1        0.1581
     12 C         138.8285  139.0209  161.5764 C.3     1  UNL1        0.2351
     13 O         138.9949  137.8251  162.4667 O.2     1  UNL1       -0.4478
     14 C         138.7466  138.2615  163.8802 C.2     1  UNL1        0.2770
     15 N         138.8075  137.3862  165.0967 N.pl3   1  UNL1       -0.3133
     16 N         138.4268  139.7270  163.8634 N.2     1  UNL1       -0.2202
     17 C         138.1347  141.2737  163.4253 C.3     1  UNL1        0.1141
     18 C         138.1590  141.3635  163.0173 C.3     1  UNL1        0.1501
     19 O         138.1335  141.2691  163.4462 O.3     1  UNL1       -0.3532
     20 C         138.1590  141.3635  163.0173 C.3     1  UNL1        0.1501
     21 H         139.0270  136.4308  165.0053 H       1  UNL1        0.1466
     22 H         138.6279  137.7670  165.9866 H       1  UNL1        0.1466
     23 N         139.3374  138.6846  157.5432 N.am    1  UNL1       -0.2791
     24 C         140.7575  138.2230  157.4002 C.2     1  UNL1        0.2672
     25 O         141.8347  138.8389  158.2429 O.2     1  UNL1       -0.2682
     26 H         138.6303  138.2804  156.9901 H       1  UNL1        0.1552
     27 C         141.1002  137.1456  156.4145 C.ar    1  UNL1        0.1348
     28 C         142.3050  136.2804  156.6379 C.ar    1  UNL1        0.0246
     29 C         142.6478  135.2029  155.6522 C.ar    1  UNL1        0.0147
     30 C         141.7858  134.9907  154.4430 C.ar    1  UNL1        0.0768
     31 CL        142.1286  133.9133  153.4574 Cl      1  UNL1       -0.0806
     32 C         140.5810  135.8560  154.2196 C.ar    1  UNL1        0.1103
     33 N         140.2383  136.9334  155.2053 N.ar    1  UNL1       -0.2384
@<TRIPOS>BOND
     1     1     2    1
     2     2     3    1
     3     2     4    1
     4     4     5    1
     5     5     6   ar
     6     6     7   ar
     7     7     8   ar
     8     8    23    1
     9    23    24   am
    10    24    25    2
    11    24    27    1
    12    27    28   ar
    13    28    29   ar
    14    29    30   ar
    15    30    31    1
    16    30    32   ar
    17    32    33   ar
    18     8     9   ar
    19     9    10   ar
    20    10    11    1
    21    11    12    1
    22    12    13    1
    23    13    14    1
    24    14    15    1
    25    14    16    2
    26    11    17    1
    27    17    18    1
    28    18    19    1
    29    19    20    1
    30    17     2    1
    31    10     5   ar
    32    16    11    1
    33    20    17    1
    34    33    27   ar
    35    23    26    1
    36    15    21    1
    37    15    22    1
