@<TRIPOS>MOLECULE
*****
 33 37 0 0 0
SMALL
GASTEIGER

@<TRIPOS>ATOM
      1 N         143.5428  143.7424  161.3854 N.pl3   1  UNL1       -0.2803
      2 H         144.2564  144.3854  161.1697 H       1  UNL1        0.1551
      3 C         143.8389  142.5574  162.2560 C.ar    1  UNL1        0.2208
      4 N         145.1482  142.4693  162.9828 N.ar    1  UNL1       -0.2111
      5 C         145.4443  141.2843  163.8534 C.ar    1  UNL1        0.1147
      6 C         144.4313  140.1874  163.9973 C.ar    1  UNL1        0.0960
      7 CL        144.7275  139.0024  164.8680 Cl      1  UNL1       -0.0790
      8 C         143.1220  140.2756  163.2705 C.ar    1  UNL1        0.1138
      9 N         142.8259  141.4605  162.3999 N.ar    1  UNL1       -0.2111
     10 C         142.1090  139.1787  163.4144 C.ar    1  UNL1        0.1031
     11 C         142.0853  137.8934  162.6415 C.ar    1  UNL1        0.1196
     12 N         140.9035  137.0950  163.1059 N.ar    1  UNL1       -0.2248
     13 C         140.1967  137.8868  164.1659 C.ar    1  UNL1        0.1479
     14 C         138.9710  137.6015  164.9821 C.ar    1  UNL1        0.0374
     15 C         138.4904  138.6041  165.9889 C.ar    1  UNL1        0.0046
     16 C         139.2354  139.8919  166.1796 C.ar    1  UNL1        0.0191
     17 C         140.4611  140.1772  165.3634 C.ar    1  UNL1        0.0815
     18 N         140.9418  139.1746  164.3566 N.ar    1  UNL1       -0.2874
     19 N         140.2256  143.9102  159.3769 N.ar    1  UNL1       -0.2503
     20 C         141.6620  143.4964  159.5019 C.ar    1  UNL1        0.1108
     21 C         142.1593  143.9477  160.8433 C.ar    1  UNL1        0.0849
     22 C         141.0302  144.6404  161.5472 C.ar    1  UNL1        0.0938
     23 C         141.0864  145.2493  162.9168 C.3     1  UNL1        0.0553
     24 N         139.8352  144.6172  160.6410 N.ar    1  UNL1       -0.1724
     25 C         136.8347  143.7243  153.4006 C.3     1  UNL1        0.0948
     26 C         136.6667  142.9124  154.6506 C.2     1  UNL1        0.2261
     27 O         135.6090  141.8511  154.7190 O.2     1  UNL1       -0.2749
     28 N         137.5564  143.1618  155.8322 N.am    1  UNL1       -0.2794
     29 C         138.6142  144.2232  155.7637 C.3     1  UNL1        0.0954
     30 C         139.5039  144.4726  156.9453 C.3     1  UNL1        0.0459
     31 C         139.3359  143.6607  158.1953 C.3     1  UNL1        0.1087
     32 C         138.2782  142.5994  158.2638 C.3     1  UNL1        0.0459
     33 C         137.3884  142.3499  157.0822 C.3     1  UNL1        0.0954
@<TRIPOS>BOND
     1    25    26    1
     2    26    27    2
     3    26    28   am
     4    28    29    1
     5    29    30    1
     6    30    31    1
     7    31    19    1
     8    19    20   ar
     9    20    21   ar
    10    21     1    1
    11     1     3    1
    12     3     4   ar
    13     4     5   ar
    14     5     6   ar
    15     6     7    1
    16     6     8   ar
    17     8    10    1
    18    10    11   ar
    19    11    12   ar
    20    12    13   ar
    21    13    14   ar
    22    14    15   ar
    23    15    16   ar
    24    16    17   ar
    25    17    18   ar
    26     8     9   ar
    27    21    22   ar
    28    22    23    1
    29    22    24   ar
    30    31    32    1
    31    32    33    1
    32    33    28    1
    33    24    19   ar
    34     9     3   ar
    35    18    10   ar
    36    18    13   ar
    37     1     2    1
@<TRIPOS>MOLECULE
*****
 33 37 0 0 0
SMALL
GASTEIGER

@<TRIPOS>ATOM
      1 N         143.4136  138.4322  162.0025 N.pl3   1  UNL1       -0.2803
      2 H         144.3036  138.4299  162.4233 H       1  UNL1        0.1551
      3 C         142.1803  138.4284  162.8562 C.ar    1  UNL1        0.2208
      4 N         141.9419  137.3078  163.8245 N.ar    1  UNL1       -0.2111
      5 C         140.7086  137.3040  164.6783 C.ar    1  UNL1        0.1147
      6 C         139.7137  138.4208  164.5638 C.ar    1  UNL1        0.0960
      7 CL        138.4804  138.4170  165.4176 Cl      1  UNL1       -0.0790
      8 C         139.9521  139.5414  163.5955 C.ar    1  UNL1        0.1138
      9 N         141.1854  139.5451  162.7417 N.ar    1  UNL1       -0.2111
     10 C         138.9572  140.6581  163.4810 C.ar    1  UNL1        0.1031
     11 C         137.7307  140.6611  162.6175 C.ar    1  UNL1        0.1196
     12 N         137.0297  141.9728  162.8127 N.ar    1  UNL1       -0.2248
     13 C         137.8229  142.7804  163.7969 C.ar    1  UNL1        0.1479
     14 C         137.6143  144.1506  164.3704 C.ar    1  UNL1        0.0374
     15 C         138.5971  144.7083  165.3568 C.ar    1  UNL1        0.0046
     16 C         139.7884  143.8958  165.7698 C.ar    1  UNL1        0.0191
     17 C         139.9970  142.5255  165.1963 C.ar    1  UNL1        0.0815
     18 N         139.0142  141.9678  164.2099 N.ar    1  UNL1       -0.2874
     19 N         142.9154  137.7241  158.2188 N.ar    1  UNL1       -0.2503
     20 C         142.9167  137.2684  159.6479 C.ar    1  UNL1        0.1108
     21 C         143.2909  138.4394  160.5075 C.ar    1  UNL1        0.0849
     22 C         143.5208  139.6189  159.6096 C.ar    1  UNL1        0.0938
     23 C         143.9138  140.9981  160.0491 C.3     1  UNL1        0.0553
     24 N         143.2888  139.1768  158.1952 N.ar    1  UNL1       -0.1724
     25 C         142.0748  132.8969  153.3979 C.3     1  UNL1        0.0948
     26 C         141.6406  134.3322  153.4367 C.2     1  UNL1        0.2261
     27 O         140.8877  134.9194  152.2798 O.2     1  UNL1       -0.2749
     28 N         141.9593  135.1802  154.6322 N.am    1  UNL1       -0.2794
     29 C         142.7122  134.5929  155.7890 C.3     1  UNL1        0.0954
     30 C         143.0309  135.4409  156.9845 C.3     1  UNL1        0.0459
     31 C         142.5967  136.8761  157.0233 C.3     1  UNL1        0.1087
     32 C         141.8438  137.4634  155.8665 C.3     1  UNL1        0.0459
     33 C         141.5251  136.6154  154.6709 C.3     1  UNL1        0.0954
@<TRIPOS>BOND
     1    25    26    1
     2    26    27    2
     3    26    28   am
     4    28    29    1
     5    29    30    1
     6    30    31    1
     7    31    19    1
     8    19    20   ar
     9    20    21   ar
    10    21     1    1
    11     1     3    1
    12     3     4   ar
    13     4     5   ar
    14     5     6   ar
    15     6     7    1
    16     6     8   ar
    17     8    10    1
    18    10    11   ar
    19    11    12   ar
    20    12    13   ar
    21    13    14   ar
    22    14    15   ar
    23    15    16   ar
    24    16    17   ar
    25    17    18   ar
    26     8     9   ar
    27    21    22   ar
    28    22    23    1
    29    22    24   ar
    30    31    32    1
    31    32    33    1
    32    33    28    1
    33    24    19   ar
    34     9     3   ar
    35    18    10   ar
    36    18    13   ar
    37     1     2    1
@<TRIPOS>MOLECULE
*****
 33 37 0 0 0
SMALL
GASTEIGER

@<TRIPOS>ATOM
      1 N         142.1183  144.6753  160.5855 N.pl3   1  UNL1       -0.2803
      2 H         143.0439  144.9839  160.4539 H       1  UNL1        0.1551
      3 C         141.2224  144.4643  159.4011 C.ar    1  UNL1        0.2208
      4 N         140.3679  143.2344  159.3166 N.ar    1  UNL1       -0.2111
      5 C         139.4721  143.0235  158.1322 C.ar    1  UNL1        0.1147
      6 C         139.4307  144.0424  157.0322 C.ar    1  UNL1        0.0960
      7 CL        138.5349  143.8314  155.8477 Cl      1  UNL1       -0.0790
      8 C         140.2853  145.2724  157.1166 C.ar    1  UNL1        0.1138
      9 N         141.1811  145.4833  158.3010 N.ar    1  UNL1       -0.2111
     10 C         140.2439  146.2913  156.0166 C.ar    1  UNL1        0.1031
     11 C         140.8623  146.1472  154.6576 C.ar    1  UNL1        0.1196
     12 N         140.5774  147.4001  153.8836 N.ar    1  UNL1       -0.2248
     13 C         139.7830  148.3186  154.7642 C.ar    1  UNL1        0.1479
     14 C         139.2208  149.6903  154.5360 C.ar    1  UNL1        0.0374
     15 C         138.4524  150.3768  155.6260 C.ar    1  UNL1        0.0046
     16 C         138.2463  149.6915  156.9443 C.ar    1  UNL1        0.0191
     17 C         138.8085  148.3197  157.1726 C.ar    1  UNL1        0.0815
     18 N         139.5769  147.6333  156.0825 N.ar    1  UNL1       -0.2874
     19 N         141.2845  143.4382  164.1688 N.ar    1  UNL1       -0.2503
     20 C         142.0653  143.3268  162.8928 C.ar    1  UNL1        0.1108
     21 C         141.6040  144.4162  161.9705 C.ar    1  UNL1        0.0849
     22 C         140.5381  145.2008  162.6765 C.ar    1  UNL1        0.0938
     23 C         139.7995  146.3823  162.1214 C.3     1  UNL1        0.0553
     24 N         140.3407  144.5964  164.0351 N.ar    1  UNL1       -0.1724
     25 C         140.8352  139.9538  170.0770 C.3     1  UNL1        0.0948
     26 C         141.8392  139.8765  168.9653 C.2     1  UNL1        0.2261
     27 O         142.9819  138.9088  169.0527 O.2     1  UNL1       -0.2749
     28 N         141.7006  140.7669  167.7661 N.am    1  UNL1       -0.2794
     29 C         140.5578  141.7347  167.6787 C.3     1  UNL1        0.0954
     30 C         140.4191  142.6251  166.4796 C.3     1  UNL1        0.0459
     31 C         141.4232  142.5478  165.3679 C.3     1  UNL1        0.1087
     32 C         142.5659  141.5801  165.4553 C.3     1  UNL1        0.0459
     33 C         142.7046  140.6897  166.6544 C.3     1  UNL1        0.0954
@<TRIPOS>BOND
     1    25    26    1
     2    26    27    2
     3    26    28   am
     4    28    29    1
     5    29    30    1
     6    30    31    1
     7    31    19    1
     8    19    20   ar
     9    20    21   ar
    10    21     1    1
    11     1     3    1
    12     3     4   ar
    13     4     5   ar
    14     5     6   ar
    15     6     7    1
    16     6     8   ar
    17     8    10    1
    18    10    11   ar
    19    11    12   ar
    20    12    13   ar
    21    13    14   ar
    22    14    15   ar
    23    15    16   ar
    24    16    17   ar
    25    17    18   ar
    26     8     9   ar
    27    21    22   ar
    28    22    23    1
    29    22    24   ar
    30    31    32    1
    31    32    33    1
    32    33    28    1
    33    24    19   ar
    34     9     3   ar
    35    18    10   ar
    36    18    13   ar
    37     1     2    1
@<TRIPOS>MOLECULE
*****
 33 37 0 0 0
SMALL
GASTEIGER

@<TRIPOS>ATOM
      1 N         143.9574  139.0265  162.6721 N.pl3   1  UNL1       -0.2803
      2 H         144.6912  138.3871  162.8200 H       1  UNL1        0.1551
      3 C         142.6162  138.7870  163.2996 C.ar    1  UNL1        0.2208
      4 N         142.3635  137.5256  164.0709 N.ar    1  UNL1       -0.2111
      5 C         141.0222  137.2862  164.6984 C.ar    1  UNL1        0.1147
      6 C         139.9337  138.3081  164.5545 C.ar    1  UNL1        0.0960
      7 CL        138.5924  138.0687  165.1820 Cl      1  UNL1       -0.0790
      8 C         140.1864  139.5696  163.7832 C.ar    1  UNL1        0.1138
      9 N         141.5276  139.8090  163.1558 N.ar    1  UNL1       -0.2111
     10 C         139.0979  140.5916  163.6393 C.ar    1  UNL1        0.1031
     11 C         137.8452  140.4373  162.8288 C.ar    1  UNL1        0.1196
     12 N         137.0441  141.6977  162.9694 N.ar    1  UNL1       -0.2248
     13 C         137.8017  142.6309  163.8667 C.ar    1  UNL1        0.1479
     14 C         137.4997  144.0148  164.3603 C.ar    1  UNL1        0.0374
     15 C         138.4670  144.7150  165.2679 C.ar    1  UNL1        0.0046
     16 C         139.7364  144.0314  165.6819 C.ar    1  UNL1        0.0191
     17 C         140.0384  142.6476  165.1884 C.ar    1  UNL1        0.0815
     18 N         139.0710  141.9473  164.2808 N.ar    1  UNL1       -0.2874
     19 N         144.1315  141.7901  159.9523 N.ar    1  UNL1       -0.2503
     20 C         143.6766  140.4396  160.4207 C.ar    1  UNL1        0.1108
     21 C         144.1806  140.2401  161.8194 C.ar    1  UNL1        0.0849
     22 C         144.9470  141.4673  162.2154 C.ar    1  UNL1        0.0938
     23 C         145.6246  141.6962  163.5338 C.3     1  UNL1        0.0553
     24 N         144.9166  142.4252  161.0616 N.ar    1  UNL1       -0.1724
     25 C         141.9744  145.3033  154.4520 C.3     1  UNL1        0.0948
     26 C         143.0079  144.2243  154.5847 C.2     1  UNL1        0.2261
     27 O         143.7605  143.7539  153.3754 O.2     1  UNL1       -0.2749
     28 N         143.2888  143.6157  155.9266 N.am    1  UNL1       -0.2794
     29 C         142.5362  144.0862  157.1358 C.3     1  UNL1        0.0954
     30 C         142.8171  143.4777  158.4777 C.3     1  UNL1        0.0459
     31 C         143.8506  142.3986  158.6104 C.3     1  UNL1        0.1087
     32 C         144.6032  141.9282  157.4012 C.3     1  UNL1        0.0459
     33 C         144.3223  142.5367  156.0593 C.3     1  UNL1        0.0954
@<TRIPOS>BOND
     1    25    26    1
     2    26    27    2
     3    26    28   am
     4    28    29    1
     5    29    30    1
     6    30    31    1
     7    31    19    1
     8    19    20   ar
     9    20    21   ar
    10    21     1    1
    11     1     3    1
    12     3     4   ar
    13     4     5   ar
    14     5     6   ar
    15     6     7    1
    16     6     8   ar
    17     8    10    1
    18    10    11   ar
    19    11    12   ar
    20    12    13   ar
    21    13    14   ar
    22    14    15   ar
    23    15    16   ar
    24    16    17   ar
    25    17    18   ar
    26     8     9   ar
    27    21    22   ar
    28    22    23    1
    29    22    24   ar
    30    31    32    1
    31    32    33    1
    32    33    28    1
    33    24    19   ar
    34     9     3   ar
    35    18    10   ar
    36    18    13   ar
    37     1     2    1
@<TRIPOS>MOLECULE
*****
 33 37 0 0 0
SMALL
GASTEIGER

@<TRIPOS>ATOM
      1 N         142.4317  140.2125  158.2658 N.pl3   1  UNL1       -0.2803
      2 H         142.3460  141.0897  157.8271 H       1  UNL1        0.1551
      3 C         142.1361  140.0741  159.7299 C.ar    1  UNL1        0.2208
      4 N         143.0650  139.2937  160.6120 N.ar    1  UNL1       -0.2111
      5 C         142.7693  139.1553  162.0761 C.ar    1  UNL1        0.1147
      6 C         141.5449  139.7973  162.6580 C.ar    1  UNL1        0.0960
      7 CL        141.2493  139.6589  164.1220 Cl      1  UNL1       -0.0790
      8 C         140.6160  140.5777  161.7757 C.ar    1  UNL1        0.1138
      9 N         140.9117  140.7161  160.3118 N.ar    1  UNL1       -0.2111
     10 C         139.3916  141.2197  162.3576 C.ar    1  UNL1        0.1031
     11 C         137.9771  140.7614  162.1597 C.ar    1  UNL1        0.1196
     12 N         137.0780  141.6912  162.9194 N.ar    1  UNL1       -0.2248
     13 C         137.9368  142.7242  163.5868 C.ar    1  UNL1        0.1479
     14 C         137.6016  143.8925  164.4657 C.ar    1  UNL1        0.0374
     15 C         138.6962  144.7694  164.9975 C.ar    1  UNL1        0.0046
     16 C         140.1260  144.4780  164.6503 C.ar    1  UNL1        0.0191
     17 C         140.4613  143.3097  163.7713 C.ar    1  UNL1        0.0815
     18 N         139.3667  142.4328  163.2396 N.ar    1  UNL1       -0.2874
     19 N         143.0085  136.7509  156.6075 N.ar    1  UNL1       -0.2503
     20 C         142.2908  137.6308  157.5877 C.ar    1  UNL1        0.1108
     21 C         142.8580  139.0145  157.4702 C.ar    1  UNL1        0.0849
     22 C         143.9262  138.9898  156.4173 C.ar    1  UNL1        0.0938
     23 C         144.7556  140.1587  155.9753 C.3     1  UNL1        0.0553
     24 N         144.0192  137.5909  155.8841 N.ar    1  UNL1       -0.1724
     25 C         140.8874  130.4545  154.8453 C.3     1  UNL1        0.0948
     26 C         142.0116  130.8993  155.7332 C.2     1  UNL1        0.2261
     27 O         142.8865  129.8812  156.4025 O.2     1  UNL1       -0.2749
     28 N         142.2608  132.3622  155.9518 N.am    1  UNL1       -0.2794
     29 C         141.3859  133.3803  155.2824 C.3     1  UNL1        0.0954
     30 C         141.6351  134.8432  155.5010 C.3     1  UNL1        0.0459
     31 C         142.7592  135.2880  156.3889 C.3     1  UNL1        0.1087
     32 C         143.6342  134.2700  157.0582 C.3     1  UNL1        0.0459
     33 C         143.3850  132.8071  156.8397 C.3     1  UNL1        0.0954
@<TRIPOS>BOND
     1    25    26    1
     2    26    27    2
     3    26    28   am
     4    28    29    1
     5    29    30    1
     6    30    31    1
     7    31    19    1
     8    19    20   ar
     9    20    21   ar
    10    21     1    1
    11     1     3    1
    12     3     4   ar
    13     4     5   ar
    14     5     6   ar
    15     6     7    1
    16     6     8   ar
    17     8    10    1
    18    10    11   ar
    19    11    12   ar
    20    12    13   ar
    21    13    14   ar
    22    14    15   ar
    23    15    16   ar
    24    16    17   ar
    25    17    18   ar
    26     8     9   ar
    27    21    22   ar
    28    22    23    1
    29    22    24   ar
    30    31    32    1
    31    32    33    1
    32    33    28    1
    33    24    19   ar
    34     9     3   ar
    35    18    10   ar
    36    18    13   ar
    37     1     2    1
@<TRIPOS>MOLECULE
*****
 33 37 0 0 0
SMALL
GASTEIGER

@<TRIPOS>ATOM
      1 N         141.8084  137.2504  162.5432 N.pl3   1  UNL1       -0.2803
      2 H         141.9550  136.2833  162.6550 H       1  UNL1        0.1551
      3 C         142.2683  137.9390  161.2925 C.ar    1  UNL1        0.2208
      4 N         143.2918  139.0326  161.3715 N.ar    1  UNL1       -0.2111
      5 C         143.7517  139.7212  160.1208 C.ar    1  UNL1        0.1147
      6 C         143.1880  139.3162  158.7910 C.ar    1  UNL1        0.0960
      7 CL        143.6479  140.0048  157.5403 Cl      1  UNL1       -0.0790
      8 C         142.1644  138.2225  158.7120 C.ar    1  UNL1        0.1138
      9 N         141.7045  137.5340  159.9627 N.ar    1  UNL1       -0.2111
     10 C         141.6007  137.8175  157.3823 C.ar    1  UNL1        0.1031
     11 C         140.4181  138.4386  156.6999 C.ar    1  UNL1        0.1196
     12 N         140.2071  137.7252  155.3974 N.ar    1  UNL1       -0.2248
     13 C         141.2594  136.6633  155.2748 C.ar    1  UNL1        0.1479
     14 C         141.5445  135.6517  154.2046 C.ar    1  UNL1        0.0374
     15 C         142.6910  134.6972  154.3611 C.ar    1  UNL1        0.0046
     16 C         143.5522  134.7542  155.5879 C.ar    1  UNL1        0.0191
     17 C         143.2670  135.7658  156.6581 C.ar    1  UNL1        0.0815
     18 N         142.1206  136.7203  156.5015 N.ar    1  UNL1       -0.2874
     19 N         140.7341  139.3511  165.6252 N.ar    1  UNL1       -0.2503
     20 C         141.7919  138.6716  164.8071 C.ar    1  UNL1        0.1108
     21 C         141.1251  138.0352  163.6236 C.ar    1  UNL1        0.0849
     22 C         139.6552  138.3215  163.7103 C.ar    1  UNL1        0.0938
     23 C         138.6105  137.8732  162.7318 C.3     1  UNL1        0.0553
     24 N         139.4135  139.1347  164.9473 N.ar    1  UNL1       -0.1724
     25 C         142.8318  143.2825  170.8590 C.3     1  UNL1        0.0948
     26 C         141.6278  142.3995  170.7151 C.2     1  UNL1        0.2261
     27 O         140.6472  142.2787  171.8438 O.2     1  UNL1       -0.2749
     28 N         141.4043  141.6374  169.4427 N.am    1  UNL1       -0.2794
     29 C         142.3849  141.7583  168.3140 C.3     1  UNL1        0.0954
     30 C         142.1615  140.9962  167.0415 C.3     1  UNL1        0.0459
     31 C         140.9575  140.1132  166.8977 C.3     1  UNL1        0.1087
     32 C         139.9769  139.9923  168.0263 C.3     1  UNL1        0.0459
     33 C         140.2003  140.7544  169.2988 C.3     1  UNL1        0.0954
@<TRIPOS>BOND
     1    25    26    1
     2    26    27    2
     3    26    28   am
     4    28    29    1
     5    29    30    1
     6    30    31    1
     7    31    19    1
     8    19    20   ar
     9    20    21   ar
    10    21     1    1
    11     1     3    1
    12     3     4   ar
    13     4     5   ar
    14     5     6   ar
    15     6     7    1
    16     6     8   ar
    17     8    10    1
    18    10    11   ar
    19    11    12   ar
    20    12    13   ar
    21    13    14   ar
    22    14    15   ar
    23    15    16   ar
    24    16    17   ar
    25    17    18   ar
    26     8     9   ar
    27    21    22   ar
    28    22    23    1
    29    22    24   ar
    30    31    32    1
    31    32    33    1
    32    33    28    1
    33    24    19   ar
    34     9     3   ar
    35    18    10   ar
    36    18    13   ar
    37     1     2    1
@<TRIPOS>MOLECULE
*****
 33 37 0 0 0
SMALL
GASTEIGER

@<TRIPOS>ATOM
      1 N         142.0770  140.2866  158.3722 N.pl3   1  UNL1       -0.2803
      2 H         141.4277  140.8965  157.9530 H       1  UNL1        0.1551
      3 C         142.5525  140.5440  159.7714 C.ar    1  UNL1        0.2208
      4 N         143.5871  139.6501  160.3882 N.ar    1  UNL1       -0.2111
      5 C         144.0626  139.9075  161.7874 C.ar    1  UNL1        0.1147
      6 C         143.5035  141.0588  162.5697 C.ar    1  UNL1        0.0960
      7 CL        143.9790  141.3161  163.9688 Cl      1  UNL1       -0.0790
      8 C         142.4688  141.9527  161.9528 C.ar    1  UNL1        0.1138
      9 N         141.9934  141.6953  160.5537 N.ar    1  UNL1       -0.2111
     10 C         141.9098  143.1040  162.7350 C.ar    1  UNL1        0.1031
     11 C         142.6261  144.3821  163.0566 C.ar    1  UNL1        0.1196
     12 N         141.6952  145.2473  163.8534 N.ar    1  UNL1       -0.2248
     13 C         140.4036  144.5039  164.0243 C.ar    1  UNL1        0.1479
     14 C         139.1238  144.8621  164.7199 C.ar    1  UNL1        0.0374
     15 C         137.9767  143.8956  164.7244 C.ar    1  UNL1        0.0046
     16 C         138.1094  142.5710  164.0332 C.ar    1  UNL1        0.0191
     17 C         139.3891  142.2128  163.3375 C.ar    1  UNL1        0.0815
     18 N         140.5362  143.1793  163.3331 N.ar    1  UNL1       -0.2874
     19 N         142.8550  136.8435  156.7583 N.ar    1  UNL1       -0.2503
     20 C         142.0413  137.7058  157.6772 C.ar    1  UNL1        0.1108
     21 C         142.5907  139.1001  157.6118 C.ar    1  UNL1        0.0849
     22 C         143.7439  139.0995  156.6525 C.ar    1  UNL1        0.0938
     23 C         144.5858  140.2853  156.2852 C.3     1  UNL1        0.0553
     24 N         143.9073  137.7049  156.1250 N.ar    1  UNL1       -0.1724
     25 C         141.0259  130.5181  154.7851 C.3     1  UNL1        0.0948
     26 C         142.0435  130.9787  155.7863 C.2     1  UNL1        0.2261
     27 O         142.8582  129.9730  156.5444 O.2     1  UNL1       -0.2749
     28 N         142.2464  132.4449  156.0293 N.am    1  UNL1       -0.2794
     29 C         141.4317  133.4505  155.2711 C.3     1  UNL1        0.0954
     30 C         141.6346  134.9167  155.5141 C.3     1  UNL1        0.0459
     31 C         142.6522  135.3773  156.5153 C.3     1  UNL1        0.1087
     32 C         143.4669  134.3716  157.2735 C.3     1  UNL1        0.0459
     33 C         143.2640  132.9054  157.0305 C.3     1  UNL1        0.0954
@<TRIPOS>BOND
     1    25    26    1
     2    26    27    2
     3    26    28   am
     4    28    29    1
     5    29    30    1
     6    30    31    1
     7    31    19    1
     8    19    20   ar
     9    20    21   ar
    10    21     1    1
    11     1     3    1
    12     3     4   ar
    13     4     5   ar
    14     5     6   ar
    15     6     7    1
    16     6     8   ar
    17     8    10    1
    18    10    11   ar
    19    11    12   ar
    20    12    13   ar
    21    13    14   ar
    22    14    15   ar
    23    15    16   ar
    24    16    17   ar
    25    17    18   ar
    26     8     9   ar
    27    21    22   ar
    28    22    23    1
    29    22    24   ar
    30    31    32    1
    31    32    33    1
    32    33    28    1
    33    24    19   ar
    34     9     3   ar
    35    18    10   ar
    36    18    13   ar
    37     1     2    1
@<TRIPOS>MOLECULE
*****
 33 37 0 0 0
SMALL
GASTEIGER

@<TRIPOS>ATOM
      1 N         138.2212  139.4323  162.8518 N.pl3   1  UNL1       -0.2803
      2 H         137.4392  138.8352  162.8872 H       1  UNL1        0.1551
      3 C         139.4524  139.1034  163.6429 C.ar    1  UNL1        0.2208
      4 N         140.1166  137.7688  163.4763 N.ar    1  UNL1       -0.2111
      5 C         141.3478  137.4399  164.2674 C.ar    1  UNL1        0.1147
      6 C         141.9148  138.4455  165.2251 C.ar    1  UNL1        0.0960
      7 CL        143.1461  138.1165  166.0162 Cl      1  UNL1       -0.0790
      8 C         141.2506  139.7801  165.3918 C.ar    1  UNL1        0.1138
      9 N         140.0194  140.1090  164.6007 N.ar    1  UNL1       -0.2111
     10 C         141.8176  140.7857  166.3495 C.ar    1  UNL1        0.1031
     11 C         143.0707  141.5854  166.1489 C.ar    1  UNL1        0.1196
     12 N         143.2585  142.4620  167.3514 N.ar    1  UNL1       -0.2248
     13 C         142.1216  142.2042  168.2953 C.ar    1  UNL1        0.1479
     14 C         141.7822  142.7789  169.6386 C.ar    1  UNL1        0.0374
     15 C         140.5522  142.3176  170.3626 C.ar    1  UNL1        0.0046
     16 C         139.6617  141.2815  169.7434 C.ar    1  UNL1        0.0191
     17 C         140.0010  140.7068  168.4001 C.ar    1  UNL1        0.0815
     18 N         141.2310  141.1681  167.6761 N.ar    1  UNL1       -0.2874
     19 N         138.3435  142.1786  160.1117 N.ar    1  UNL1       -0.2503
     20 C         138.5197  140.7543  160.5478 C.ar    1  UNL1        0.1108
     21 C         138.1812  140.6710  162.0068 C.ar    1  UNL1        0.0849
     22 C         137.7959  142.0440  162.4723 C.ar    1  UNL1        0.0938
     23 C         137.3828  142.4192  163.8646 C.3     1  UNL1        0.0553
     24 N         137.8962  142.9757  161.3011 N.ar    1  UNL1       -0.1724
     25 C         140.3524  145.3184  154.3362 C.3     1  UNL1        0.0948
     26 C         139.2662  144.3132  154.5807 C.2     1  UNL1        0.2261
     27 O         138.4107  143.8417  153.4424 O.2     1  UNL1       -0.2749
     28 N         139.0355  143.7796  155.9634 N.am    1  UNL1       -0.2794
     29 C         139.8911  144.2511  157.1017 C.3     1  UNL1        0.0954
     30 C         139.6604  143.7175  158.4845 C.3     1  UNL1        0.0459
     31 C         138.5742  142.7123  158.7289 C.3     1  UNL1        0.1087
     32 C         137.7187  142.2407  157.5907 C.3     1  UNL1        0.0459
     33 C         137.9493  142.7744  156.2079 C.3     1  UNL1        0.0954
@<TRIPOS>BOND
     1    25    26    1
     2    26    27    2
     3    26    28   am
     4    28    29    1
     5    29    30    1
     6    30    31    1
     7    31    19    1
     8    19    20   ar
     9    20    21   ar
    10    21     1    1
    11     1     3    1
    12     3     4   ar
    13     4     5   ar
    14     5     6   ar
    15     6     7    1
    16     6     8   ar
    17     8    10    1
    18    10    11   ar
    19    11    12   ar
    20    12    13   ar
    21    13    14   ar
    22    14    15   ar
    23    15    16   ar
    24    16    17   ar
    25    17    18   ar
    26     8     9   ar
    27    21    22   ar
    28    22    23    1
    29    22    24   ar
    30    31    32    1
    31    32    33    1
    32    33    28    1
    33    24    19   ar
    34     9     3   ar
    35    18    10   ar
    36    18    13   ar
    37     1     2    1
@<TRIPOS>MOLECULE
*****
 33 37 0 0 0
SMALL
GASTEIGER

@<TRIPOS>ATOM
      1 N         142.5555  144.5325  163.3031 N.pl3   1  UNL1       -0.2803
      2 H         142.8374  145.3295  163.8076 H       1  UNL1        0.1551
      3 C         143.1236  143.1875  163.6470 C.ar    1  UNL1        0.2208
      4 N         144.5765  143.0539  163.9953 N.ar    1  UNL1       -0.2111
      5 C         145.1446  141.7089  164.3392 C.ar    1  UNL1        0.1147
      6 C         144.2598  140.4976  164.3349 C.ar    1  UNL1        0.0960
      7 CL        144.8279  139.1526  164.6789 Cl      1  UNL1       -0.0790
      8 C         142.8069  140.6313  163.9866 C.ar    1  UNL1        0.1138
      9 N         142.2389  141.9763  163.6427 N.ar    1  UNL1       -0.2111
     10 C         141.9221  139.4200  163.9823 C.ar    1  UNL1        0.1031
     11 C         142.1021  138.1998  163.1288 C.ar    1  UNL1        0.1196
     12 N         140.9933  137.2420  163.4498 N.ar    1  UNL1       -0.2248
     13 C         140.1279  137.8703  164.5017 C.ar    1  UNL1        0.1479
     14 C         138.8915  137.3906  165.2024 C.ar    1  UNL1        0.0374
     15 C         138.2291  138.2570  166.2321 C.ar    1  UNL1        0.0046
     16 C         138.8031  139.6032  166.5612 C.ar    1  UNL1        0.0191
     17 C         140.0396  140.0829  165.8606 C.ar    1  UNL1        0.0815
     18 N         140.7020  139.2164  164.8308 N.ar    1  UNL1       -0.2874
     19 N         140.5746  144.7927  159.9754 N.ar    1  UNL1       -0.2503
     20 C         141.8643  144.6243  160.7226 C.ar    1  UNL1        0.1108
     21 C         141.5580  144.6631  162.1906 C.ar    1  UNL1        0.0849
     22 C         140.0789  144.8555  162.3505 C.ar    1  UNL1        0.0938
     23 C         139.3379  144.9510  163.6511 C.3     1  UNL1        0.0553
     24 N         139.4712  144.9356  160.9815 N.ar    1  UNL1       -0.1724
     25 C         139.1235  143.8231  153.3268 C.3     1  UNL1        0.0948
     26 C         139.9406  144.8795  154.0097 C.2     1  UNL1        0.2261
     27 O         140.5991  145.9576  153.2010 O.2     1  UNL1       -0.2749
     28 N         140.0991  144.8578  155.5011 N.am    1  UNL1       -0.2794
     29 C         139.4405  143.7797  156.3097 C.3     1  UNL1        0.0954
     30 C         139.5990  143.7580  157.8011 C.3     1  UNL1        0.0459
     31 C         140.4161  144.8144  158.4840 C.3     1  UNL1        0.1087
     32 C         141.0747  145.8926  157.6754 C.3     1  UNL1        0.0459
     33 C         140.9162  145.9143  156.1839 C.3     1  UNL1        0.0954
@<TRIPOS>BOND
     1    25    26    1
     2    26    27    2
     3    26    28   am
     4    28    29    1
     5    29    30    1
     6    30    31    1
     7    31    19    1
     8    19    20   ar
     9    20    21   ar
    10    21     1    1
    11     1     3    1
    12     3     4   ar
    13     4     5   ar
    14     5     6   ar
    15     6     7    1
    16     6     8   ar
    17     8    10    1
    18    10    11   ar
    19    11    12   ar
    20    12    13   ar
    21    13    14   ar
    22    14    15   ar
    23    15    16   ar
    24    16    17   ar
    25    17    18   ar
    26     8     9   ar
    27    21    22   ar
    28    22    23    1
    29    22    24   ar
    30    31    32    1
    31    32    33    1
    32    33    28    1
    33    24    19   ar
    34     9     3   ar
    35    18    10   ar
    36    18    13   ar
    37     1     2    1
