@<TRIPOS>MOLECULE
*****
 34 37 0 0 0
SMALL
GASTEIGER

@<TRIPOS>ATOM
      1 C         139.1776  141.8495  163.6623 C.ar    1  UNL1        0.0154
      2 C         137.8668  142.3951  163.1784 C.ar    1  UNL1        0.0985
      3 N         137.7260  142.8602  161.7594 N.ar    1  UNL1       -0.2423
      4 C         138.8961  142.7799  160.8242 C.ar    1  UNL1        0.0985
      5 C         140.2069  142.2344  161.3081 C.ar    1  UNL1        0.0152
      6 C         140.3476  141.7692  162.7272 C.ar    1  UNL1       -0.0188
      7 C         141.6584  141.2236  163.2112 C.3     1  UNL1        0.0311
      8 C         140.2779  141.7153  167.4730 C.ar    1  UNL1        0.1754
      9 C         140.1372  142.1804  166.0540 C.ar    1  UNL1        0.0403
     10 C         139.3183  141.3843  165.0815 C.ar    1  UNL1        0.0074
     11 C         138.6402  140.1231  165.5281 C.ar    1  UNL1        0.0403
     12 C         138.7809  139.6580  166.9471 C.ar    1  UNL1        0.1754
     13 C         139.5998  140.4541  167.9196 C.ar    1  UNL1        0.2061
     14 C         140.4201  143.4214  169.4272 C.3     1  UNL1        0.2526
     15 O         141.0968  142.5113  168.4455 O.3     1  UNL1       -0.4683
     16 O         138.1027  138.3968  167.3938 O.3     1  UNL1       -0.4683
     17 C         137.8525  137.2914  166.4112 C.3     1  UNL1        0.2526
     18 O         139.7405  139.9889  169.3388 O.3     1  UNL1       -0.4654
     19 C         141.0895  139.6089  169.8732 C.3     1  UNL1        0.2528
     20 C         141.3770  142.1540  160.3730 C.ar    1  UNL1        0.0013
     21 C         142.3516  143.2913  160.2918 C.ar    1  UNL1        0.0013
     22 C         143.5218  143.2110  159.3567 C.ar    1  UNL1        0.0145
     23 C         143.7172  141.9934  158.5027 C.ar    1  UNL1        0.0479
     24 C         142.7424  140.8561  158.5839 C.ar    1  UNL1        0.0145
     25 C         141.5724  140.9364  159.5190 C.ar    1  UNL1        0.0013
     26 N         144.8872  141.9130  157.5676 N.pl3   1  UNL1       -0.3046
     27 C         144.8523  140.9696  156.4020 C.3     1  UNL1        0.1081
     28 C         146.0224  140.8892  155.4668 C.3     1  UNL1        0.0938
     29 N         147.2274  141.7523  155.6973 N.3     1  UNL1       -0.2711
     30 C         147.2623  142.6957  156.8630 C.3     1  UNL1        0.0938
     31 C         146.0922  142.7761  157.7981 C.3     1  UNL1        0.1081
     32 C         148.3974  141.6719  154.7622 C.3     1  UNL1        0.0577
     33 C         149.7927  141.6132  155.3100 C.3     1  UNL1        0.0173
     34 C         148.1723  141.6503  153.2794 C.3     1  UNL1        0.0173
@<TRIPOS>BOND
     1    14    15    1
     2    15     8    1
     3     8     9   ar
     4     9    10   ar
     5    10     1    1
     6     1     2   ar
     7     2     3   ar
     8     3     4   ar
     9     4     5   ar
    10     5    20    1
    11    20    21   ar
    12    21    22   ar
    13    22    23   ar
    14    23    26    1
    15    26    27    1
    16    27    28    1
    17    28    29    1
    18    29    32    1
    19    32    33    1
    20    32    34    1
    21    29    30    1
    22    30    31    1
    23    23    24   ar
    24    24    25   ar
    25     5     6   ar
    26     6     7    1
    27    10    11   ar
    28    11    12   ar
    29    12    16    1
    30    16    17    1
    31    12    13   ar
    32    13    18    1
    33    18    19    1
    34    13     8   ar
    35     6     1   ar
    36    25    20   ar
    37    31    26    1
@<TRIPOS>MOLECULE
*****
 34 37 0 0 0
SMALL
GASTEIGER

@<TRIPOS>ATOM
      1 C         139.2191  141.9106  163.8595 C.ar    1  UNL1        0.0154
      2 C         137.8727  142.3698  163.3840 C.ar    1  UNL1        0.0985
      3 N         137.6750  142.7519  161.9470 N.ar    1  UNL1       -0.2423
      4 C         138.8238  142.6748  160.9856 C.ar    1  UNL1        0.0985
      5 C         140.1703  142.2156  161.4611 C.ar    1  UNL1        0.0152
      6 C         140.3679  141.8335  162.8982 C.ar    1  UNL1       -0.0188
      7 C         141.7144  141.3743  163.3737 C.3     1  UNL1        0.0311
      8 C         139.0102  139.8794  167.2626 C.ar    1  UNL1        0.1754
      9 C         138.8126  140.2615  165.8256 C.ar    1  UNL1        0.0403
     10 C         139.4168  141.5285  165.2966 C.ar    1  UNL1        0.0074
     11 C         140.2185  142.4132  166.2045 C.ar    1  UNL1        0.0403
     12 C         140.4161  142.0311  167.6414 C.ar    1  UNL1        0.1754
     13 C         139.8120  140.7642  168.1705 C.ar    1  UNL1        0.2061
     14 C         137.4316  137.8392  166.9536 C.3     1  UNL1        0.2526
     15 O         138.4061  138.6125  167.7917 O.3     1  UNL1       -0.4683
     16 O         141.2179  142.9159  168.5494 O.3     1  UNL1       -0.4683
     17 C         140.5301  143.7187  169.6135 C.3     1  UNL1        0.2526
     18 O         140.0096  140.3820  169.6075 O.3     1  UNL1       -0.4654
     19 C         141.2253  139.6042  170.0163 C.3     1  UNL1        0.2528
     20 C         141.3191  142.1386  160.4998 C.ar    1  UNL1        0.0013
     21 C         142.1707  143.3479  160.2503 C.ar    1  UNL1        0.0013
     22 C         143.3195  143.2709  159.2889 C.ar    1  UNL1        0.0145
     23 C         143.6167  141.9845  158.5770 C.ar    1  UNL1        0.0479
     24 C         142.7650  140.7751  158.8264 C.ar    1  UNL1        0.0145
     25 C         141.6162  140.8522  159.7878 C.ar    1  UNL1        0.0013
     26 N         144.7655  141.9074  157.6156 N.pl3   1  UNL1       -0.3046
     27 C         146.0095  142.7065  157.8680 C.3     1  UNL1        0.1081
     28 C         147.1584  142.6295  156.9066 C.3     1  UNL1        0.0938
     29 N         147.0632  141.7533  155.6928 N.3     1  UNL1       -0.2711
     30 C         145.8190  140.9541  155.4404 C.3     1  UNL1        0.0938
     31 C         144.6703  141.0312  156.4018 C.3     1  UNL1        0.1081
     32 C         148.2120  141.6762  154.7314 C.3     1  UNL1        0.0577
     33 C         147.9527  141.6397  153.2544 C.3     1  UNL1        0.0173
     34 C         149.6200  141.6356  155.2470 C.3     1  UNL1        0.0173
@<TRIPOS>BOND
     1    14    15    1
     2    15     8    1
     3     8     9   ar
     4     9    10   ar
     5    10     1    1
     6     1     2   ar
     7     2     3   ar
     8     3     4   ar
     9     4     5   ar
    10     5    20    1
    11    20    21   ar
    12    21    22   ar
    13    22    23   ar
    14    23    26    1
    15    26    27    1
    16    27    28    1
    17    28    29    1
    18    29    32    1
    19    32    33    1
    20    32    34    1
    21    29    30    1
    22    30    31    1
    23    23    24   ar
    24    24    25   ar
    25     5     6   ar
    26     6     7    1
    27    10    11   ar
    28    11    12   ar
    29    12    16    1
    30    16    17    1
    31    12    13   ar
    32    13    18    1
    33    18    19    1
    34    13     8   ar
    35     6     1   ar
    36    25    20   ar
    37    31    26    1
@<TRIPOS>MOLECULE
*****
 34 37 0 0 0
SMALL
GASTEIGER

@<TRIPOS>ATOM
      1 C         141.2591  141.5909  164.4036 C.ar    1  UNL1        0.0154
      2 C         141.3296  143.0704  164.1667 C.ar    1  UNL1        0.0985
      3 N         141.4721  143.6005  162.7708 N.ar    1  UNL1       -0.2423
      4 C         141.5440  142.6511  161.6116 C.ar    1  UNL1        0.0985
      5 C         141.4735  141.1716  161.8485 C.ar    1  UNL1        0.0152
      6 C         141.3310  140.6415  163.2446 C.ar    1  UNL1       -0.0188
      7 C         141.2604  139.1620  163.4815 C.3     1  UNL1        0.0311
      8 C         139.6893  139.8872  167.6259 C.ar    1  UNL1        0.1754
      9 C         139.8319  140.4172  166.2300 C.ar    1  UNL1        0.0403
     10 C         141.1166  141.0609  165.7996 C.ar    1  UNL1        0.0074
     11 C         142.2588  141.1745  166.7652 C.ar    1  UNL1        0.0403
     12 C         142.1162  140.6444  168.1612 C.ar    1  UNL1        0.1754
     13 C         140.8315  140.0008  168.5915 C.ar    1  UNL1        0.2061
     14 C         137.5883  138.4644  167.0681 C.3     1  UNL1        0.2526
     15 O         138.4046  139.2435  168.0562 O.3     1  UNL1       -0.4683
     16 O         143.2585  140.7580  169.1268 O.3     1  UNL1       -0.4683
     17 C         143.6057  142.0892  169.7246 C.3     1  UNL1        0.2526
     18 O         140.6890  139.4707  169.9875 O.3     1  UNL1       -0.4654
     19 C         140.4285  140.4135  171.1247 C.3     1  UNL1        0.2528
     20 C         141.5454  140.2222  160.6895 C.ar    1  UNL1        0.0013
     21 C         140.2880  139.7889  159.9959 C.ar    1  UNL1        0.0013
     22 C         140.3599  138.8394  158.8368 C.ar    1  UNL1        0.0145
     23 C         141.6892  138.3233  158.3714 C.ar    1  UNL1        0.0479
     24 C         142.9466  138.7566  159.0651 C.ar    1  UNL1        0.0145
     25 C         142.8747  139.7060  160.2241 C.ar    1  UNL1        0.0013
     26 N         141.7611  137.3739  157.2124 N.pl3   1  UNL1       -0.3046
     27 C         143.0630  136.7175  156.8603 C.3     1  UNL1        0.1081
     28 C         143.1350  135.7680  155.7012 C.3     1  UNL1        0.0938
     29 N         141.9050  135.4750  154.8942 N.3     1  UNL1       -0.2711
     30 C         140.6029  136.1314  155.2464 C.3     1  UNL1        0.0938
     31 C         140.5310  137.0809  156.4054 C.3     1  UNL1        0.1081
     32 C         141.9769  134.5256  153.7352 C.3     1  UNL1        0.0577
     33 C         142.4205  133.1092  153.9523 C.3     1  UNL1        0.0173
     34 C         141.6051  134.9925  152.3591 C.3     1  UNL1        0.0173
@<TRIPOS>BOND
     1    14    15    1
     2    15     8    1
     3     8     9   ar
     4     9    10   ar
     5    10     1    1
     6     1     2   ar
     7     2     3   ar
     8     3     4   ar
     9     4     5   ar
    10     5    20    1
    11    20    21   ar
    12    21    22   ar
    13    22    23   ar
    14    23    26    1
    15    26    27    1
    16    27    28    1
    17    28    29    1
    18    29    32    1
    19    32    33    1
    20    32    34    1
    21    29    30    1
    22    30    31    1
    23    23    24   ar
    24    24    25   ar
    25     5     6   ar
    26     6     7    1
    27    10    11   ar
    28    11    12   ar
    29    12    16    1
    30    16    17    1
    31    12    13   ar
    32    13    18    1
    33    18    19    1
    34    13     8   ar
    35     6     1   ar
    36    25    20   ar
    37    31    26    1
@<TRIPOS>MOLECULE
*****
 34 37 0 0 0
SMALL
GASTEIGER

@<TRIPOS>ATOM
      1 C         141.0717  141.5694  164.3049 C.ar    1  UNL1        0.0154
      2 C         141.0404  143.0448  164.0366 C.ar    1  UNL1        0.0985
      3 N         141.1262  143.5530  162.6279 N.ar    1  UNL1       -0.2423
      4 C         141.2433  142.5856  161.4875 C.ar    1  UNL1        0.0985
      5 C         141.2745  141.1101  161.7557 C.ar    1  UNL1        0.0152
      6 C         141.1887  140.6020  163.1645 C.ar    1  UNL1       -0.0188
      7 C         141.2199  139.1265  163.4328 C.3     1  UNL1        0.0311
      8 C         142.0604  140.7319  168.0561 C.ar    1  UNL1        0.1754
      9 C         142.1461  141.2400  166.6474 C.ar    1  UNL1        0.0403
     10 C         140.9859  141.0612  165.7136 C.ar    1  UNL1        0.0074
     11 C         139.7399  140.3744  166.1886 C.ar    1  UNL1        0.0403
     12 C         139.6541  139.8663  167.5973 C.ar    1  UNL1        0.1754
     13 C         140.8144  140.0451  168.5310 C.ar    1  UNL1        0.2061
     14 C         143.4019  142.2077  169.7211 C.3     1  UNL1        0.2526
     15 O         143.2206  140.9107  168.9898 O.3     1  UNL1       -0.4683
     16 O         138.4081  139.1794  168.0723 O.3     1  UNL1       -0.4683
     17 C         137.5367  138.4467  167.0957 C.3     1  UNL1        0.2526
     18 O         140.7286  139.5370  169.9398 O.3     1  UNL1       -0.4654
     19 C         140.3723  140.4748  171.0549 C.3     1  UNL1        0.2528
     20 C         141.3915  140.1428  160.6154 C.ar    1  UNL1        0.0013
     21 C         142.7451  139.7224  160.1245 C.ar    1  UNL1        0.0013
     22 C         142.8622  138.7550  158.9840 C.ar    1  UNL1        0.0145
     23 C         141.6256  138.2081  158.3346 C.ar    1  UNL1        0.0479
     24 C         140.2720  138.6286  158.8255 C.ar    1  UNL1        0.0145
     25 C         140.1550  139.5959  159.9659 C.ar    1  UNL1        0.0013
     26 N         141.7427  137.2407  157.1942 N.pl3   1  UNL1       -0.3046
     27 C         140.6312  137.1226  156.1939 C.3     1  UNL1        0.1081
     28 C         140.7482  136.1552  155.0535 C.3     1  UNL1        0.0938
     29 N         141.9767  135.3060  154.9133 N.3     1  UNL1       -0.2711
     30 C         143.0882  135.4242  155.9137 C.3     1  UNL1        0.0938
     31 C         142.9712  136.3915  157.0541 C.3     1  UNL1        0.1081
     32 C         142.0937  134.3387  153.7730 C.3     1  UNL1        0.0577
     33 C         141.6842  134.7550  152.3913 C.3     1  UNL1        0.0173
     34 C         142.6202  132.9550  154.0142 C.3     1  UNL1        0.0173
@<TRIPOS>BOND
     1    14    15    1
     2    15     8    1
     3     8     9   ar
     4     9    10   ar
     5    10     1    1
     6     1     2   ar
     7     2     3   ar
     8     3     4   ar
     9     4     5   ar
    10     5    20    1
    11    20    21   ar
    12    21    22   ar
    13    22    23   ar
    14    23    26    1
    15    26    27    1
    16    27    28    1
    17    28    29    1
    18    29    32    1
    19    32    33    1
    20    32    34    1
    21    29    30    1
    22    30    31    1
    23    23    24   ar
    24    24    25   ar
    25     5     6   ar
    26     6     7    1
    27    10    11   ar
    28    11    12   ar
    29    12    16    1
    30    16    17    1
    31    12    13   ar
    32    13    18    1
    33    18    19    1
    34    13     8   ar
    35     6     1   ar
    36    25    20   ar
    37    31    26    1
@<TRIPOS>MOLECULE
*****
 34 37 0 0 0
SMALL
GASTEIGER

@<TRIPOS>ATOM
      1 C         143.1020  142.3041  163.3916 C.ar    1  UNL1        0.0154
      2 C         144.1251  143.3440  163.0425 C.ar    1  UNL1        0.0985
      3 N         144.8378  143.2820  161.7241 N.ar    1  UNL1       -0.2423
      4 C         144.5273  142.1802  160.7547 C.ar    1  UNL1        0.0985
      5 C         143.5042  141.1403  161.1039 C.ar    1  UNL1        0.0152
      6 C         142.7915  141.2023  162.4224 C.ar    1  UNL1       -0.0188
      7 C         141.7684  140.1624  162.7715 C.3     1  UNL1        0.0311
      8 C         140.3916  143.1920  166.1512 C.ar    1  UNL1        0.1754
      9 C         141.1042  143.1300  164.8328 C.ar    1  UNL1        0.0403
     10 C         142.3893  142.3661  164.7101 C.ar    1  UNL1        0.0074
     11 C         142.9618  141.6643  165.9058 C.ar    1  UNL1        0.0403
     12 C         142.2491  141.7263  167.2242 C.ar    1  UNL1        0.1754
     13 C         140.9640  142.4902  167.3469 C.ar    1  UNL1        0.2061
     14 C         138.5526  144.6874  165.0874 C.3     1  UNL1        0.2526
     15 O         139.1065  143.9558  166.2739 O.3     1  UNL1       -0.4683
     16 O         142.8215  141.0245  168.4200 O.3     1  UNL1       -0.4683
     17 C         142.4365  139.6044  168.7117 C.3     1  UNL1        0.2526
     18 O         140.2513  142.5522  168.6654 O.3     1  UNL1       -0.4654
     19 C         140.5874  143.6332  169.6495 C.3     1  UNL1        0.2528
     20 C         143.1938  140.0385  160.1346 C.ar    1  UNL1        0.0013
     21 C         142.7529  140.3690  158.7395 C.ar    1  UNL1        0.0013
     22 C         142.4424  139.2671  157.7701 C.ar    1  UNL1        0.0145
     23 C         142.5728  137.8348  158.1960 C.ar    1  UNL1        0.0479
     24 C         143.0137  137.5043  159.5912 C.ar    1  UNL1        0.0145
     25 C         143.3242  138.6061  160.5604 C.ar    1  UNL1        0.0013
     26 N         142.2624  136.7329  157.2267 N.pl3   1  UNL1       -0.3046
     27 C         143.0708  135.4696  157.2433 C.3     1  UNL1        0.1081
     28 C         142.7604  134.3677  156.2740 C.3     1  UNL1        0.0938
     29 N         141.6415  134.5292  155.2881 N.3     1  UNL1       -0.2711
     30 C         140.8330  135.7926  155.2716 C.3     1  UNL1        0.0938
     31 C         141.1434  136.8944  156.2408 C.3     1  UNL1        0.1081
     32 C         141.3310  133.4274  154.3188 C.3     1  UNL1        0.0577
     33 C         141.0754  132.0370  154.8205 C.3     1  UNL1        0.0173
     34 C         141.2761  133.7158  152.8479 C.3     1  UNL1        0.0173
@<TRIPOS>BOND
     1    14    15    1
     2    15     8    1
     3     8     9   ar
     4     9    10   ar
     5    10     1    1
     6     1     2   ar
     7     2     3   ar
     8     3     4   ar
     9     4     5   ar
    10     5    20    1
    11    20    21   ar
    12    21    22   ar
    13    22    23   ar
    14    23    26    1
    15    26    27    1
    16    27    28    1
    17    28    29    1
    18    29    32    1
    19    32    33    1
    20    32    34    1
    21    29    30    1
    22    30    31    1
    23    23    24   ar
    24    24    25   ar
    25     5     6   ar
    26     6     7    1
    27    10    11   ar
    28    11    12   ar
    29    12    16    1
    30    16    17    1
    31    12    13   ar
    32    13    18    1
    33    18    19    1
    34    13     8   ar
    35     6     1   ar
    36    25    20   ar
    37    31    26    1
@<TRIPOS>MOLECULE
*****
 34 37 0 0 0
SMALL
GASTEIGER

@<TRIPOS>ATOM
      1 C         143.0703  142.2932  163.4859 C.ar    1  UNL1        0.0154
      2 C         144.1068  143.3260  163.1560 C.ar    1  UNL1        0.0985
      3 N         144.8399  143.2620  161.8489 N.ar    1  UNL1       -0.2423
      4 C         144.5364  142.1651  160.8717 C.ar    1  UNL1        0.0985
      5 C         143.4999  141.1323  161.2017 C.ar    1  UNL1        0.0152
      6 C         142.7668  141.1963  162.5088 C.ar    1  UNL1       -0.0188
      7 C         141.7303  140.1635  162.8388 C.3     1  UNL1        0.0311
      8 C         142.1151  141.6558  167.2848 C.ar    1  UNL1        0.1754
      9 C         142.8480  141.5918  165.9777 C.ar    1  UNL1        0.0403
     10 C         142.3372  142.3572  164.7931 C.ar    1  UNL1        0.0074
     11 C         141.0935  143.1866  164.9156 C.ar    1  UNL1        0.0403
     12 C         140.3605  143.2506  166.2227 C.ar    1  UNL1        0.1754
     13 C         140.8713  142.4852  167.4073 C.ar    1  UNL1        0.2061
     14 C         142.6580  139.3912  168.4365 C.3     1  UNL1        0.2526
     15 O         142.6259  140.8904  168.4694 O.3     1  UNL1       -0.4683
     16 O         139.1166  144.0800  166.3453 O.3     1  UNL1       -0.4683
     17 C         138.5459  144.7592  165.1358 C.3     1  UNL1        0.2526
     18 O         140.1382  142.5493  168.7145 O.3     1  UNL1       -0.4654
     19 C         140.4766  143.6167  169.7126 C.3     1  UNL1        0.2528
     20 C         143.1964  140.0355  160.2245 C.ar    1  UNL1        0.0013
     21 C         142.7219  140.3727  158.8421 C.ar    1  UNL1        0.0013
     22 C         142.4184  139.2758  157.8649 C.ar    1  UNL1        0.0145
     23 C         142.5894  137.8418  158.2702 C.ar    1  UNL1        0.0479
     24 C         143.0640  137.5046  159.6527 C.ar    1  UNL1        0.0145
     25 C         143.3674  138.6014  160.6298 C.ar    1  UNL1        0.0013
     26 N         142.2860  136.7449  157.2931 N.pl3   1  UNL1       -0.3046
     27 C         141.1595  136.9022  156.3152 C.3     1  UNL1        0.1081
     28 C         140.8560  135.8053  155.3380 C.3     1  UNL1        0.0938
     29 N         141.6789  134.5512  155.3388 N.3     1  UNL1       -0.2711
     30 C         142.8055  134.3940  156.3167 C.3     1  UNL1        0.0938
     31 C         143.1089  135.4909  157.2939 C.3     1  UNL1        0.1081
     32 C         141.3755  133.4544  154.3617 C.3     1  UNL1        0.0577
     33 C         141.3788  133.7397  152.8890 C.3     1  UNL1        0.0173
     34 C         141.0687  132.0722  154.8571 C.3     1  UNL1        0.0173
@<TRIPOS>BOND
     1    14    15    1
     2    15     8    1
     3     8     9   ar
     4     9    10   ar
     5    10     1    1
     6     1     2   ar
     7     2     3   ar
     8     3     4   ar
     9     4     5   ar
    10     5    20    1
    11    20    21   ar
    12    21    22   ar
    13    22    23   ar
    14    23    26    1
    15    26    27    1
    16    27    28    1
    17    28    29    1
    18    29    32    1
    19    32    33    1
    20    32    34    1
    21    29    30    1
    22    30    31    1
    23    23    24   ar
    24    24    25   ar
    25     5     6   ar
    26     6     7    1
    27    10    11   ar
    28    11    12   ar
    29    12    16    1
    30    16    17    1
    31    12    13   ar
    32    13    18    1
    33    18    19    1
    34    13     8   ar
    35     6     1   ar
    36    25    20   ar
    37    31    26    1
@<TRIPOS>MOLECULE
*****
 34 37 0 0 0
SMALL
GASTEIGER

@<TRIPOS>ATOM
      1 C         141.8955  139.4102  163.9914 C.ar    1  UNL1        0.0154
      2 C         142.5720  138.1346  163.5853 C.ar    1  UNL1        0.0985
      3 N         142.9872  137.9270  162.1589 N.ar    1  UNL1       -0.2423
      4 C         142.7258  138.9951  161.1387 C.ar    1  UNL1        0.0985
      5 C         142.0493  140.2707  161.5448 C.ar    1  UNL1        0.0152
      6 C         141.6341  140.4783  162.9712 C.ar    1  UNL1       -0.0188
      7 C         140.9576  141.7540  163.3774 C.3     1  UNL1        0.0311
      8 C         142.0647  140.3076  167.8536 C.ar    1  UNL1        0.1754
      9 C         142.4797  140.1000  166.4272 C.ar    1  UNL1        0.0403
     10 C         141.4804  139.6178  165.4179 C.ar    1  UNL1        0.0074
     11 C         140.0660  139.3432  165.8349 C.ar    1  UNL1        0.0403
     12 C         139.6509  139.5508  167.2613 C.ar    1  UNL1        0.1754
     13 C         140.6503  140.0330  168.2706 C.ar    1  UNL1        0.2061
     14 C         143.1790  142.2548  169.1637 C.3     1  UNL1        0.2526
     15 O         143.0640  140.7898  168.8629 O.3     1  UNL1       -0.4683
     16 O         138.2364  139.2761  167.6784 O.3     1  UNL1       -0.4683
     17 C         137.4931  138.1139  167.0896 C.3     1  UNL1        0.2526
     18 O         140.2351  140.2406  169.6971 O.3     1  UNL1       -0.4654
     19 C         139.6120  141.5393  170.1154 C.3     1  UNL1        0.2528
     20 C         141.7879  141.3388  160.5246 C.ar    1  UNL1        0.0013
     21 C         140.5380  141.2952  159.6965 C.ar    1  UNL1        0.0013
     22 C         140.2765  142.3633  158.6763 C.ar    1  UNL1        0.0145
     23 C         141.2650  143.4750  158.4841 C.ar    1  UNL1        0.0479
     24 C         142.5150  143.5186  159.3123 C.ar    1  UNL1        0.0145
     25 C         142.7764  142.4505  160.3325 C.ar    1  UNL1        0.0013
     26 N         141.0036  144.5431  157.4640 N.pl3   1  UNL1       -0.3046
     27 C         141.6466  144.4615  156.1112 C.3     1  UNL1        0.1081
     28 C         141.3852  145.5296  155.0909 C.3     1  UNL1        0.0938
     29 N         140.4809  146.6793  155.4235 N.3     1  UNL1       -0.2711
     30 C         139.8379  146.7608  156.7763 C.3     1  UNL1        0.0938
     31 C         140.0993  145.6927  157.7965 C.3     1  UNL1        0.1081
     32 C         140.2195  147.7473  154.4033 C.3     1  UNL1        0.0577
     33 C         139.3538  148.9218  154.7519 C.3     1  UNL1        0.0173
     34 C         140.8238  147.6411  153.0345 C.3     1  UNL1        0.0173
@<TRIPOS>BOND
     1    14    15    1
     2    15     8    1
     3     8     9   ar
     4     9    10   ar
     5    10     1    1
     6     1     2   ar
     7     2     3   ar
     8     3     4   ar
     9     4     5   ar
    10     5    20    1
    11    20    21   ar
    12    21    22   ar
    13    22    23   ar
    14    23    26    1
    15    26    27    1
    16    27    28    1
    17    28    29    1
    18    29    32    1
    19    32    33    1
    20    32    34    1
    21    29    30    1
    22    30    31    1
    23    23    24   ar
    24    24    25   ar
    25     5     6   ar
    26     6     7    1
    27    10    11   ar
    28    11    12   ar
    29    12    16    1
    30    16    17    1
    31    12    13   ar
    32    13    18    1
    33    18    19    1
    34    13     8   ar
    35     6     1   ar
    36    25    20   ar
    37    31    26    1
@<TRIPOS>MOLECULE
*****
 34 37 0 0 0
SMALL
GASTEIGER

@<TRIPOS>ATOM
      1 C         142.3426  142.7661  164.4350 C.ar    1  UNL1        0.0154
      2 C         143.4169  143.8042  164.2995 C.ar    1  UNL1        0.0985
      3 N         143.6350  144.4904  162.9836 N.ar    1  UNL1       -0.2423
      4 C         142.7789  144.1384  161.8032 C.ar    1  UNL1        0.0985
      5 C         141.7047  143.1003  161.9387 C.ar    1  UNL1        0.0152
      6 C         141.4866  142.4142  163.2547 C.ar    1  UNL1       -0.0188
      7 C         140.4123  141.3761  163.3902 C.3     1  UNL1        0.0311
      8 C         140.9892  142.0014  168.0866 C.ar    1  UNL1        0.1754
      9 C         141.2074  142.6875  166.7707 C.ar    1  UNL1        0.0403
     10 C         142.1245  142.0799  165.7510 C.ar    1  UNL1        0.0074
     11 C         142.8234  140.7862  166.0472 C.ar    1  UNL1        0.0403
     12 C         142.6052  140.1001  167.3631 C.ar    1  UNL1        0.1754
     13 C         141.6881  140.7077  168.3828 C.ar    1  UNL1        0.2061
     14 C         140.4756  143.8617  169.8259 C.3     1  UNL1        0.2526
     15 O         140.0722  142.6090  169.1063 O.3     1  UNL1       -0.4683
     16 O         143.3041  138.8063  167.6593 O.3     1  UNL1       -0.4683
     17 C         143.8662  137.9837  166.5381 C.3     1  UNL1        0.2526
     18 O         141.4700  140.0215  169.6987 O.3     1  UNL1       -0.4654
     19 C         142.1782  140.5119  170.9267 C.3     1  UNL1        0.2528
     20 C         140.8486  142.7484  160.7584 C.ar    1  UNL1        0.0013
     21 C         141.4446  142.0203  159.5902 C.ar    1  UNL1        0.0013
     22 C         140.5885  141.6683  158.4098 C.ar    1  UNL1        0.0145
     23 C         139.1365  142.0445  158.3976 C.ar    1  UNL1        0.0479
     24 C         138.5406  142.7726  159.5659 C.ar    1  UNL1        0.0145
     25 C         139.3966  143.1246  160.7462 C.ar    1  UNL1        0.0013
     26 N         138.2804  141.6925  157.2173 N.pl3   1  UNL1       -0.3046
     27 C         138.4145  140.3469  156.5682 C.3     1  UNL1        0.1081
     28 C         137.5584  139.9949  155.3878 C.3     1  UNL1        0.0938
     29 N         136.5683  140.9886  154.8565 N.3     1  UNL1       -0.2711
     30 C         136.4343  142.3343  155.5056 C.3     1  UNL1        0.0938
     31 C         137.2903  142.6862  156.6860 C.3     1  UNL1        0.1081
     32 C         135.7122  140.6367  153.6762 C.3     1  UNL1        0.0577
     33 C         134.4044  141.3394  153.4621 C.3     1  UNL1        0.0173
     34 C         136.1639  139.5820  152.7099 C.3     1  UNL1        0.0173
@<TRIPOS>BOND
     1    14    15    1
     2    15     8    1
     3     8     9   ar
     4     9    10   ar
     5    10     1    1
     6     1     2   ar
     7     2     3   ar
     8     3     4   ar
     9     4     5   ar
    10     5    20    1
    11    20    21   ar
    12    21    22   ar
    13    22    23   ar
    14    23    26    1
    15    26    27    1
    16    27    28    1
    17    28    29    1
    18    29    32    1
    19    32    33    1
    20    32    34    1
    21    29    30    1
    22    30    31    1
    23    23    24   ar
    24    24    25   ar
    25     5     6   ar
    26     6     7    1
    27    10    11   ar
    28    11    12   ar
    29    12    16    1
    30    16    17    1
    31    12    13   ar
    32    13    18    1
    33    18    19    1
    34    13     8   ar
    35     6     1   ar
    36    25    20   ar
    37    31    26    1
@<TRIPOS>MOLECULE
*****
 34 37 0 0 0
SMALL
GASTEIGER

@<TRIPOS>ATOM
      1 C         140.4508  142.4246  164.5746 C.ar    1  UNL1        0.0154
      2 C         140.5773  143.9187  164.5333 C.ar    1  UNL1        0.0985
      3 N         140.4674  144.6448  163.2254 N.ar    1  UNL1       -0.2423
      4 C         140.2310  143.8768  161.9587 C.ar    1  UNL1        0.0985
      5 C         140.1045  142.3827  162.0000 C.ar    1  UNL1        0.0152
      6 C         140.2144  141.6566  163.3080 C.ar    1  UNL1       -0.0188
      7 C         140.0879  140.1626  163.3494 C.3     1  UNL1        0.0311
      8 C         141.9014  141.1286  168.0338 C.ar    1  UNL1        0.1754
      9 C         141.7914  141.8546  166.7259 C.ar    1  UNL1        0.0403
     10 C         140.5608  141.6986  165.8826 C.ar    1  UNL1        0.0074
     11 C         139.4401  140.8165  166.3472 C.ar    1  UNL1        0.0403
     12 C         139.5500  140.0905  167.6552 C.ar    1  UNL1        0.1754
     13 C         140.7807  140.2465  168.4985 C.ar    1  UNL1        0.2061
     14 C         143.2372  142.4242  169.8467 C.3     1  UNL1        0.2526
     15 O         143.1320  141.2846  168.8771 O.3     1  UNL1       -0.4683
     16 O         138.4293  139.2083  168.1199 O.3     1  UNL1       -0.4683
     17 C         137.5860  138.4767  167.1182 C.3     1  UNL1        0.2526
     18 O         140.8906  139.5204  169.8065 O.3     1  UNL1       -0.4654
     19 C         140.4477  140.1882  171.0745 C.3     1  UNL1        0.2528
     20 C         139.8681  141.6147  160.7335 C.ar    1  UNL1        0.0013
     21 C         138.4672  141.3504  160.2670 C.ar    1  UNL1        0.0013
     22 C         138.2307  140.5824  159.0004 C.ar    1  UNL1        0.0145
     23 C         139.3952  140.0787  158.2003 C.ar    1  UNL1        0.0479
     24 C         140.7962  140.3430  158.6667 C.ar    1  UNL1        0.0145
     25 C         141.0326  141.1110  159.9333 C.ar    1  UNL1        0.0013
     26 N         139.1588  139.3107  156.9337 N.pl3   1  UNL1       -0.3046
     27 C         139.7392  137.9373  156.7700 C.3     1  UNL1        0.1081
     28 C         139.5029  137.1692  155.5033 C.3     1  UNL1        0.0938
     29 N         138.6860  137.7746  154.4005 N.3     1  UNL1       -0.2711
     30 C         138.1055  139.1481  154.5643 C.3     1  UNL1        0.0938
     31 C         138.3419  139.9161  155.8309 C.3     1  UNL1        0.1081
     32 C         138.4496  137.0066  153.1339 C.3     1  UNL1        0.0577
     33 C         137.0860  136.9923  152.5089 C.3     1  UNL1        0.0173
     34 C         139.5766  136.2529  152.4924 C.3     1  UNL1        0.0173
@<TRIPOS>BOND
     1    14    15    1
     2    15     8    1
     3     8     9   ar
     4     9    10   ar
     5    10     1    1
     6     1     2   ar
     7     2     3   ar
     8     3     4   ar
     9     4     5   ar
    10     5    20    1
    11    20    21   ar
    12    21    22   ar
    13    22    23   ar
    14    23    26    1
    15    26    27    1
    16    27    28    1
    17    28    29    1
    18    29    32    1
    19    32    33    1
    20    32    34    1
    21    29    30    1
    22    30    31    1
    23    23    24   ar
    24    24    25   ar
    25     5     6   ar
    26     6     7    1
    27    10    11   ar
    28    11    12   ar
    29    12    16    1
    30    16    17    1
    31    12    13   ar
    32    13    18    1
    33    18    19    1
    34    13     8   ar
    35     6     1   ar
    36    25    20   ar
    37    31    26    1
