@<TRIPOS>MOLECULE
*****
 38 42 0 0 0
SMALL
GASTEIGER

@<TRIPOS>ATOM
      1 C         142.9803  143.8453  158.1593 C.ar    1  UNL1        0.2267
      2 N         143.7126  143.1707  157.0374 N.ar    1  UNL1       -0.2012
      3 C         144.4120  141.8653  157.2760 C.ar    1  UNL1        0.1552
      4 C         144.3791  141.2346  158.6365 C.ar    1  UNL1        0.0665
      5 C         143.6468  141.9091  159.7584 C.ar    1  UNL1        0.1439
      6 C         142.9474  143.2145  159.5198 C.ar    1  UNL1        0.0948
      7 C         142.3111  143.6419  160.8091 C.3     1  UNL1        0.1757
      8 O         142.0050  144.6832  159.7736 O.3     1  UNL1       -0.3764
      9 C         141.4856  144.7129  161.4585 C.3     1  UNL1        0.1444
     10 O         140.9570  145.9465  160.7887 O.3     1  UNL1       -0.3815
     11 C         141.2815  144.3335  162.8954 C.3     1  UNL1        0.0535
     12 C         141.9809  143.0282  163.1340 C.3     1  UNL1        0.0694
     13 C         142.6172  142.6008  161.8446 C.3     1  UNL1        0.1835
     14 O         143.4427  141.5299  161.1953 O.3     1  UNL1       -0.4755
     15 H         142.4075  144.4273  158.9290 H       1  UNL1        0.2109
     16 H         141.2310  145.9518  159.8582 H       1  UNL1        0.2105
     17 C         142.0346  142.2814  164.4338 C.ar    1  UNL1       -0.0186
     18 C         140.9825  141.2622  164.7570 C.ar    1  UNL1       -0.0041
     19 C         141.0361  140.5153  166.0569 C.ar    1  UNL1       -0.0003
     20 C         142.1418  140.7877  167.0333 C.ar    1  UNL1       -0.0000
     21 C         143.1938  141.8069  166.7099 C.ar    1  UNL1       -0.0003
     22 C         143.1402  142.5537  165.4101 C.ar    1  UNL1       -0.0041
     23 C         142.9233  141.5596  162.8802 C.ar    1  UNL1        0.0165
     24 C         141.9880  140.4044  163.0815 C.ar    1  UNL1       -0.0002
     25 C         142.2940  139.3631  164.1170 C.ar    1  UNL1        0.0101
     26 C         143.5354  139.4772  164.9512 C.ar    1  UNL1        0.0684
     27 C         144.4707  140.6325  164.7499 C.ar    1  UNL1        0.0101
     28 C         144.1647  141.6737  163.7144 C.ar    1  UNL1       -0.0002
     29 C         143.8415  138.4361  165.9867 C.1     1  UNL1        0.1004
     30 N         144.1475  137.3949  167.0222 N.1     1  UNL1       -0.1908
     31 C         141.7706  145.4887  156.5513 C.3     1  UNL1        0.2542
     32 O         142.2810  145.1506  157.9206 O.3     1  UNL1       -0.4562
     33 C         145.1443  141.1907  156.1541 C.1     1  UNL1        0.1200
     34 N         145.8766  140.5161  155.0322 N.1     1  UNL1       -0.1893
     35 C         140.5130  145.1213  163.9146 C.3     1  UNL1        0.0751
     36 N         139.0696  144.8059  164.1739 N.3     1  UNL1       -0.2702
     37 C         138.1664  144.4362  163.0348 C.3     1  UNL1        0.0897
     38 C         138.5295  144.8601  165.5722 C.3     1  UNL1        0.0897
@<TRIPOS>BOND
     1    31    32    1
     2    32     1    1
     3     1     2   ar
     4     2     3   ar
     5     3    33    1
     6    33    34    3
     7     3     4   ar
     8     4     5   ar
     9     5     6   ar
    10     6     7    1
    11     7     8    1
    12     7     9    1
    13     9    10    1
    14     9    11    1
    15    11    35    1
    16    35    36    1
    17    36    37    1
    18    36    38    1
    19    11    12    1
    20    12    17    1
    21    17    18   ar
    22    18    19   ar
    23    19    20   ar
    24    20    21   ar
    25    21    22   ar
    26    12    13    1
    27    13    23    1
    28    23    24   ar
    29    24    25   ar
    30    25    26   ar
    31    26    29    1
    32    29    30    3
    33    26    27   ar
    34    27    28   ar
    35    13    14    1
    36     6     1   ar
    37    13     7    1
    38    28    23   ar
    39    14     5    1
    40    22    17   ar
    41     8    15    1
    42    10    16    1
@<TRIPOS>MOLECULE
*****
 38 42 0 0 0
SMALL
GASTEIGER

@<TRIPOS>ATOM
      1 C         138.6947  140.3198  158.4526 C.ar    1  UNL1        0.2267
      2 N         139.0930  139.4030  157.3341 N.ar    1  UNL1       -0.2012
      3 C         140.1217  138.3368  157.5686 C.ar    1  UNL1        0.1552
      4 C         140.7521  138.1873  158.9214 C.ar    1  UNL1        0.0665
      5 C         140.3538  139.1040  160.0398 C.ar    1  UNL1        0.1439
      6 C         139.3251  140.1703  159.8054 C.ar    1  UNL1        0.0948
      7 C         139.1347  140.9210  161.0900 C.3     1  UNL1        0.1757
      8 O         138.2237  141.5233  160.0616 O.3     1  UNL1       -0.3764
      9 C         138.3812  142.0441  161.7390 C.3     1  UNL1        0.1444
     10 O         137.3615  142.9212  161.0752 O.3     1  UNL1       -0.3815
     11 C         138.8265  142.1358  163.1684 C.3     1  UNL1        0.0535
     12 C         139.8552  141.0696  163.4029 C.3     1  UNL1        0.0694
     13 C         140.0456  140.3188  162.1183 C.3     1  UNL1        0.1835
     14 O         140.7991  139.1958  161.4693 O.3     1  UNL1       -0.4755
     15 H         138.3298  141.0525  159.2202 H       1  UNL1        0.2109
     16 H         137.2578  142.6525  160.1489 H       1  UNL1        0.2105
     17 C         140.5683  140.8012  164.6949 C.ar    1  UNL1       -0.0186
     18 C         139.9751  139.8549  165.6963 C.ar    1  UNL1       -0.0041
     19 C         140.6882  139.5865  166.9885 C.ar    1  UNL1       -0.0003
     20 C         141.9943  140.2644  167.2792 C.ar    1  UNL1       -0.0000
     21 C         142.5874  141.2108  166.2777 C.ar    1  UNL1       -0.0003
     22 C         141.8743  141.4791  164.9856 C.ar    1  UNL1       -0.0041
     23 C         140.9566  139.7166  163.1466 C.ar    1  UNL1        0.0165
     24 C         140.4756  138.5827  164.0027 C.ar    1  UNL1       -0.0002
     25 C         141.3865  137.9804  165.0311 C.ar    1  UNL1        0.0101
     26 C         142.7784  138.5121  165.2033 C.ar    1  UNL1        0.0684
     27 C         143.2595  139.6460  164.3473 C.ar    1  UNL1        0.0101
     28 C         142.3486  140.2483  163.3189 C.ar    1  UNL1       -0.0002
     29 C         143.6894  137.9099  166.2317 C.1     1  UNL1        0.1004
     30 N         144.6004  137.3077  167.2600 N.1     1  UNL1       -0.1908
     31 C         137.6683  142.1610  156.9339 C.3     1  UNL1        0.2542
     32 O         137.6660  141.3860  158.2181 O.3     1  UNL1       -0.4562
     33 C         140.5200  137.4200  156.4501 C.1     1  UNL1        0.1200
     34 N         140.9182  136.5033  155.3316 N.1     1  UNL1       -0.1893
     35 C         138.3303  143.1209  164.1849 C.3     1  UNL1        0.0751
     36 N         139.1688  144.3104  164.5484 N.3     1  UNL1       -0.2702
     37 C         138.8696  145.0856  165.7971 C.3     1  UNL1        0.0897
     38 C         140.3066  144.7246  163.6630 C.3     1  UNL1        0.0897
@<TRIPOS>BOND
     1    31    32    1
     2    32     1    1
     3     1     2   ar
     4     2     3   ar
     5     3    33    1
     6    33    34    3
     7     3     4   ar
     8     4     5   ar
     9     5     6   ar
    10     6     7    1
    11     7     8    1
    12     7     9    1
    13     9    10    1
    14     9    11    1
    15    11    35    1
    16    35    36    1
    17    36    37    1
    18    36    38    1
    19    11    12    1
    20    12    17    1
    21    17    18   ar
    22    18    19   ar
    23    19    20   ar
    24    20    21   ar
    25    21    22   ar
    26    12    13    1
    27    13    23    1
    28    23    24   ar
    29    24    25   ar
    30    25    26   ar
    31    26    29    1
    32    29    30    3
    33    26    27   ar
    34    27    28   ar
    35    13    14    1
    36     6     1   ar
    37    13     7    1
    38    28    23   ar
    39    14     5    1
    40    22    17   ar
    41     8    15    1
    42    10    16    1
@<TRIPOS>MOLECULE
*****
 38 42 0 0 0
SMALL
GASTEIGER

@<TRIPOS>ATOM
      1 C         140.4312  139.8996  157.9858 C.ar    1  UNL1        0.2267
      2 N         141.1860  138.8445  157.2328 N.ar    1  UNL1       -0.2012
      3 C         142.0948  137.9041  157.9674 C.ar    1  UNL1        0.1552
      4 C         142.2489  138.0188  159.4551 C.ar    1  UNL1        0.0665
      5 C         141.4941  139.0739  160.2081 C.ar    1  UNL1        0.1439
      6 C         140.5853  140.0143  159.4734 C.ar    1  UNL1        0.0948
      7 C         139.9746  140.9472  160.4768 C.3     1  UNL1        0.1757
      8 O         139.4431  141.3111  159.1220 O.3     1  UNL1       -0.3764
      9 C         139.0354  142.1051  160.6429 C.3     1  UNL1        0.1444
     10 O         138.2783  142.7907  159.5445 O.3     1  UNL1       -0.3815
     11 C         138.9865  142.4568  162.1003 C.3     1  UNL1        0.0535
     12 C         139.8953  141.5164  162.8349 C.3     1  UNL1        0.0694
     13 C         140.5060  140.5834  161.8315 C.3     1  UNL1        0.1835
     14 O         141.4451  139.4257  161.6654 O.3     1  UNL1       -0.4755
     15 H         139.8253  140.7194  158.4552 H       1  UNL1        0.2109
     16 H         138.4874  142.3697  158.6960 H       1  UNL1        0.2105
     17 C         140.1489  141.5100  164.3133 C.ar    1  UNL1       -0.0186
     18 C         141.2632  142.3345  164.8865 C.ar    1  UNL1       -0.0041
     19 C         141.5169  142.3281  166.3650 C.ar    1  UNL1       -0.0003
     20 C         140.6563  141.4973  167.2700 C.ar    1  UNL1       -0.0000
     21 C         139.5420  140.6729  166.6966 C.ar    1  UNL1       -0.0003
     22 C         139.2884  140.6792  165.2183 C.ar    1  UNL1       -0.0041
     23 C         141.0374  140.2197  163.1862 C.ar    1  UNL1        0.0165
     24 C         142.2915  140.8642  163.6978 C.ar    1  UNL1       -0.0002
     25 C         142.8230  140.5004  165.0525 C.ar    1  UNL1        0.0101
     26 C         142.1003  139.4922  165.8957 C.ar    1  UNL1        0.0684
     27 C         140.8461  138.8477  165.3842 C.ar    1  UNL1        0.0101
     28 C         140.3146  139.2114  164.0294 C.ar    1  UNL1       -0.0002
     29 C         142.6316  139.1284  167.2504 C.1     1  UNL1        0.1004
     30 N         143.1630  138.7646  168.6051 N.1     1  UNL1       -0.1908
     31 C         138.4884  140.3003  156.3080 C.3     1  UNL1        0.2542
     32 O         139.5223  140.8400  157.2512 O.3     1  UNL1       -0.4562
     33 C         142.8496  136.8490  157.2143 C.1     1  UNL1        0.1200
     34 N         143.6043  135.7939  156.4613 N.1     1  UNL1       -0.1893
     35 C         138.1717  143.5559  162.7150 C.3     1  UNL1        0.0751
     36 N         138.8516  144.6701  163.4542 N.3     1  UNL1       -0.2702
     37 C         138.6083  144.8539  164.9229 C.3     1  UNL1        0.0897
     38 C         139.7748  145.6004  162.7247 C.3     1  UNL1        0.0897
@<TRIPOS>BOND
     1    31    32    1
     2    32     1    1
     3     1     2   ar
     4     2     3   ar
     5     3    33    1
     6    33    34    3
     7     3     4   ar
     8     4     5   ar
     9     5     6   ar
    10     6     7    1
    11     7     8    1
    12     7     9    1
    13     9    10    1
    14     9    11    1
    15    11    35    1
    16    35    36    1
    17    36    37    1
    18    36    38    1
    19    11    12    1
    20    12    17    1
    21    17    18   ar
    22    18    19   ar
    23    19    20   ar
    24    20    21   ar
    25    21    22   ar
    26    12    13    1
    27    13    23    1
    28    23    24   ar
    29    24    25   ar
    30    25    26   ar
    31    26    29    1
    32    29    30    3
    33    26    27   ar
    34    27    28   ar
    35    13    14    1
    36     6     1   ar
    37    13     7    1
    38    28    23   ar
    39    14     5    1
    40    22    17   ar
    41     8    15    1
    42    10    16    1
@<TRIPOS>MOLECULE
*****
 38 42 0 0 0
SMALL
GASTEIGER

@<TRIPOS>ATOM
      1 C         139.3055  143.7635  157.3633 C.ar    1  UNL1        0.2267
      2 N         138.3439  143.1816  156.3700 N.ar    1  UNL1       -0.2012
      3 C         137.4273  142.0666  156.7781 C.ar    1  UNL1        0.1552
      4 C         137.4721  141.5335  158.1794 C.ar    1  UNL1        0.0665
      5 C         138.4337  142.1155  159.1727 C.ar    1  UNL1        0.1439
      6 C         139.3504  143.2305  158.7647 C.ar    1  UNL1        0.0948
      7 C         140.1863  143.6019  159.9535 C.3     1  UNL1        0.1757
      8 O         140.5863  144.4874  158.8107 O.3     1  UNL1       -0.3764
      9 C         141.2695  144.5206  160.4361 C.3     1  UNL1        0.1444
     10 O         141.9617  145.5723  159.6208 O.3     1  UNL1       -0.3815
     11 C         141.5388  144.2029  161.8771 C.3     1  UNL1        0.0535
     12 C         140.6221  143.0879  162.2851 C.3     1  UNL1        0.0694
     13 C         139.7862  142.7165  161.0963 C.3     1  UNL1        0.1835
     14 O         138.7031  141.7978  160.6137 O.3     1  UNL1       -0.4755
     15 H         140.0575  144.2648  158.0286 H       1  UNL1        0.2109
     16 H         141.6012  145.5725  158.7202 H       1  UNL1        0.2105
     17 C         140.5534  142.4553  163.6435 C.ar    1  UNL1       -0.0186
     18 C         139.6271  143.0117  164.6838 C.ar    1  UNL1       -0.0041
     19 C         139.5583  142.3792  166.0423 C.ar    1  UNL1       -0.0003
     20 C         140.4159  141.1903  166.3603 C.ar    1  UNL1       -0.0000
     21 C         141.3422  140.6339  165.3198 C.ar    1  UNL1       -0.0003
     22 C         141.4109  141.2665  163.9614 C.ar    1  UNL1       -0.0041
     23 C         139.3862  141.8310  162.2391 C.ar    1  UNL1        0.0165
     24 C         138.2960  142.2613  163.1752 C.ar    1  UNL1       -0.0002
     25 C         137.8960  141.3758  164.3181 C.ar    1  UNL1        0.0101
     26 C         138.5861  140.0602  164.5247 C.ar    1  UNL1        0.0684
     27 C         139.6763  139.6300  163.5886 C.ar    1  UNL1        0.0101
     28 C         140.0764  140.5153  162.4457 C.ar    1  UNL1       -0.0002
     29 C         138.1861  139.1748  165.6675 C.1     1  UNL1        0.1004
     30 N         137.7860  138.2894  166.8103 N.1     1  UNL1       -0.1908
     31 C         139.6802  146.0579  156.2034 C.3     1  UNL1        0.2542
     32 O         140.2221  144.8785  156.9553 O.3     1  UNL1       -0.4562
     33 C         136.4657  141.4846  155.7847 C.1     1  UNL1        0.1200
     34 N         135.5041  140.9027  154.7914 N.1     1  UNL1       -0.1893
     35 C         142.5477  144.8811  162.7558 C.3     1  UNL1        0.0751
     36 N         143.7610  144.1320  163.2212 N.3     1  UNL1       -0.2702
     37 C         144.5717  143.3351  162.2426 C.3     1  UNL1        0.0897
     38 C         144.1637  144.1797  164.6654 C.3     1  UNL1        0.0897
@<TRIPOS>BOND
     1    31    32    1
     2    32     1    1
     3     1     2   ar
     4     2     3   ar
     5     3    33    1
     6    33    34    3
     7     3     4   ar
     8     4     5   ar
     9     5     6   ar
    10     6     7    1
    11     7     8    1
    12     7     9    1
    13     9    10    1
    14     9    11    1
    15    11    35    1
    16    35    36    1
    17    36    37    1
    18    36    38    1
    19    11    12    1
    20    12    17    1
    21    17    18   ar
    22    18    19   ar
    23    19    20   ar
    24    20    21   ar
    25    21    22   ar
    26    12    13    1
    27    13    23    1
    28    23    24   ar
    29    24    25   ar
    30    25    26   ar
    31    26    29    1
    32    29    30    3
    33    26    27   ar
    34    27    28   ar
    35    13    14    1
    36     6     1   ar
    37    13     7    1
    38    28    23   ar
    39    14     5    1
    40    22    17   ar
    41     8    15    1
    42    10    16    1
@<TRIPOS>MOLECULE
*****
 38 42 0 0 0
SMALL
GASTEIGER

@<TRIPOS>ATOM
      1 C         139.2793  143.7560  157.4151 C.ar    1  UNL1        0.2267
      2 N         138.3108  143.1786  156.4260 N.ar    1  UNL1       -0.2012
      3 C         137.3916  142.0669  156.8376 C.ar    1  UNL1        0.1552
      4 C         137.4410  141.5327  158.2383 C.ar    1  UNL1        0.0665
      5 C         138.4096  142.1102  159.2275 C.ar    1  UNL1        0.1439
      6 C         139.3287  143.2218  158.8158 C.ar    1  UNL1        0.0948
      7 C         140.1717  143.5890  160.0010 C.3     1  UNL1        0.1757
      8 O         140.5699  144.4738  158.8569 O.3     1  UNL1       -0.3764
      9 C         141.2609  144.5031  160.4790 C.3     1  UNL1        0.1444
     10 O         141.9534  145.5526  159.6612 O.3     1  UNL1       -0.3815
     11 C         141.5357  144.1833  161.9185 C.3     1  UNL1        0.0535
     12 C         140.6166  143.0716  162.3302 C.3     1  UNL1        0.0694
     13 C         139.7736  142.7044  161.1450 C.3     1  UNL1        0.1835
     14 O         138.6845  141.7904  160.6670 O.3     1  UNL1       -0.4755
     15 H         140.0365  144.2538  158.0772 H       1  UNL1        0.2109
     16 H         141.5887  145.5549  158.7623 H       1  UNL1        0.2105
     17 C         140.5518  142.4384  163.6884 C.ar    1  UNL1       -0.0186
     18 C         141.4024  141.2428  163.9997 C.ar    1  UNL1       -0.0041
     19 C         141.3377  140.6095  165.3580 C.ar    1  UNL1       -0.0003
     20 C         140.4223  141.1719  166.4049 C.ar    1  UNL1       -0.0000
     21 C         139.5716  142.3676  166.0934 C.ar    1  UNL1       -0.0003
     22 C         139.6365  143.0008  164.7351 C.ar    1  UNL1       -0.0041
     23 C         139.3755  141.8198  162.2891 C.ar    1  UNL1        0.0165
     24 C         138.2952  142.2561  163.2339 C.ar    1  UNL1       -0.0002
     25 C         137.8970  141.3715  164.3780 C.ar    1  UNL1        0.0101
     26 C         138.5791  140.0506  164.5773 C.ar    1  UNL1        0.0684
     27 C         139.6594  139.6142  163.6325 C.ar    1  UNL1        0.0101
     28 C         140.0576  140.4988  162.4884 C.ar    1  UNL1       -0.0002
     29 C         138.1810  139.1660  165.7214 C.1     1  UNL1        0.1004
     30 N         137.7829  138.2813  166.8654 N.1     1  UNL1       -0.1908
     31 C         139.6393  146.1090  156.3741 C.3     1  UNL1        0.2542
     32 O         140.1985  144.8676  157.0035 O.3     1  UNL1       -0.4562
     33 C         136.4231  141.4895  155.8484 C.1     1  UNL1        0.1200
     34 N         135.4545  140.9120  154.8592 N.1     1  UNL1       -0.1893
     35 C         142.5515  144.8569  162.7929 C.3     1  UNL1        0.0751
     36 N         143.8034  144.1298  163.1855 N.3     1  UNL1       -0.2702
     37 C         144.2793  144.1696  164.6074 C.3     1  UNL1        0.0897
     38 C         144.5793  143.3628  162.1561 C.3     1  UNL1        0.0897
@<TRIPOS>BOND
     1    31    32    1
     2    32     1    1
     3     1     2   ar
     4     2     3   ar
     5     3    33    1
     6    33    34    3
     7     3     4   ar
     8     4     5   ar
     9     5     6   ar
    10     6     7    1
    11     7     8    1
    12     7     9    1
    13     9    10    1
    14     9    11    1
    15    11    35    1
    16    35    36    1
    17    36    37    1
    18    36    38    1
    19    11    12    1
    20    12    17    1
    21    17    18   ar
    22    18    19   ar
    23    19    20   ar
    24    20    21   ar
    25    21    22   ar
    26    12    13    1
    27    13    23    1
    28    23    24   ar
    29    24    25   ar
    30    25    26   ar
    31    26    29    1
    32    29    30    3
    33    26    27   ar
    34    27    28   ar
    35    13    14    1
    36     6     1   ar
    37    13     7    1
    38    28    23   ar
    39    14     5    1
    40    22    17   ar
    41     8    15    1
    42    10    16    1
@<TRIPOS>MOLECULE
*****
 38 42 0 0 0
SMALL
GASTEIGER

@<TRIPOS>ATOM
      1 C         142.1745  139.9194  158.1163 C.ar    1  UNL1        0.2267
      2 N         141.3710  139.2198  157.0605 N.ar    1  UNL1       -0.2012
      3 C         140.1292  138.4678  157.4382 C.ar    1  UNL1        0.1552
      4 C         139.6910  138.4155  158.8717 C.ar    1  UNL1        0.0665
      5 C         140.4945  139.1152  159.9276 C.ar    1  UNL1        0.1439
      6 C         141.7362  139.8671  159.5499 C.ar    1  UNL1        0.0948
      7 C         142.3205  140.4549  160.8002 C.3     1  UNL1        0.1757
      8 O         143.2012  140.8436  159.6497 O.3     1  UNL1       -0.3764
      9 C         143.4491  141.2829  161.3394 C.3     1  UNL1        0.1444
     10 O         144.5648  141.8825  160.5361 O.3     1  UNL1       -0.3815
     11 C         143.2658  141.4060  162.8231 C.3     1  UNL1        0.0535
     12 C         142.0241  140.6541  163.2008 C.3     1  UNL1        0.0694
     13 C         141.4398  140.0663  161.9506 C.3     1  UNL1        0.1835
     14 O         140.3113  139.2383  161.4113 O.3     1  UNL1       -0.4755
     15 H         142.8420  140.4735  158.8282 H       1  UNL1        0.2109
     16 H         144.4491  141.6534  159.6007 H       1  UNL1        0.2105
     17 C         141.4648  140.5145  164.5856 C.ar    1  UNL1       -0.0186
     18 C         141.9030  139.3774  165.4603 C.ar    1  UNL1       -0.0041
     19 C         141.3437  139.2377  166.8451 C.ar    1  UNL1       -0.0003
     20 C         140.3462  140.2351  167.3552 C.ar    1  UNL1       -0.0000
     21 C         139.9080  141.3722  166.4805 C.ar    1  UNL1       -0.0003
     22 C         140.4673  141.5118  165.0957 C.ar    1  UNL1       -0.0041
     23 C         140.5592  139.6777  163.1010 C.ar    1  UNL1        0.0165
     24 C         139.4133  140.5597  163.4996 C.ar    1  UNL1       -0.0002
     25 C         138.5326  140.1711  164.6501 C.ar    1  UNL1        0.0101
     26 C         138.7978  138.9005  165.4018 C.ar    1  UNL1        0.0684
     27 C         139.9437  138.0185  165.0031 C.ar    1  UNL1        0.0101
     28 C         140.8244  138.4070  163.8527 C.ar    1  UNL1       -0.0002
     29 C         137.9172  138.5119  166.5522 C.1     1  UNL1        0.1004
     30 N         137.0366  138.1233  167.7026 N.1     1  UNL1       -0.1908
     31 C         144.2556  140.2029  156.5871 C.3     1  UNL1        0.2542
     32 O         143.4162  140.6713  157.7386 O.3     1  UNL1       -0.4562
     33 C         139.3257  137.7682  156.3822 C.1     1  UNL1        0.1200
     34 N         138.5223  137.0686  155.3264 N.1     1  UNL1       -0.1893
     35 C         144.1663  142.1503  163.7639 C.3     1  UNL1        0.0751
     36 N         143.7896  143.5243  164.2333 N.3     1  UNL1       -0.2702
     37 C         144.5077  144.1429  165.3959 C.3     1  UNL1        0.0897
     38 C         142.6948  144.2798  163.5399 C.3     1  UNL1        0.0897
@<TRIPOS>BOND
     1    31    32    1
     2    32     1    1
     3     1     2   ar
     4     2     3   ar
     5     3    33    1
     6    33    34    3
     7     3     4   ar
     8     4     5   ar
     9     5     6   ar
    10     6     7    1
    11     7     8    1
    12     7     9    1
    13     9    10    1
    14     9    11    1
    15    11    35    1
    16    35    36    1
    17    36    37    1
    18    36    38    1
    19    11    12    1
    20    12    17    1
    21    17    18   ar
    22    18    19   ar
    23    19    20   ar
    24    20    21   ar
    25    21    22   ar
    26    12    13    1
    27    13    23    1
    28    23    24   ar
    29    24    25   ar
    30    25    26   ar
    31    26    29    1
    32    29    30    3
    33    26    27   ar
    34    27    28   ar
    35    13    14    1
    36     6     1   ar
    37    13     7    1
    38    28    23   ar
    39    14     5    1
    40    22    17   ar
    41     8    15    1
    42    10    16    1
@<TRIPOS>MOLECULE
*****
 38 42 0 0 0
SMALL
GASTEIGER

@<TRIPOS>ATOM
      1 C         142.4067  139.7188  169.0194 C.ar    1  UNL1        0.2267
      2 N         141.8546  140.2711  170.3000 N.ar    1  UNL1       -0.2012
      3 C         141.0677  141.5482  170.2885 C.ar    1  UNL1        0.1552
      4 C         140.8330  142.2728  168.9963 C.ar    1  UNL1        0.0665
      5 C         141.3851  141.7205  167.7157 C.ar    1  UNL1        0.1439
      6 C         142.1720  140.4435  167.7273 C.ar    1  UNL1        0.0948
      7 C         142.5894  140.1435  166.3181 C.3     1  UNL1        0.1757
      8 O         143.1183  139.0518  167.2006 O.3     1  UNL1       -0.3764
      9 C         143.3337  139.1688  165.4543 C.3     1  UNL1        0.1444
     10 O         144.0254  137.9236  165.9243 O.3     1  UNL1       -0.3815
     11 C         143.2649  139.6581  164.0380 C.3     1  UNL1        0.0535
     12 C         142.4780  140.9351  164.0264 C.3     1  UNL1        0.0694
     13 C         142.0606  141.2351  165.4356 C.3     1  UNL1        0.1835
     14 O         141.3163  142.2097  166.2994 O.3     1  UNL1       -0.4755
     15 H         142.8599  139.2251  168.1193 H       1  UNL1        0.2109
     16 H         143.9200  137.8381  166.8847 H       1  UNL1        0.2105
     17 C         142.1637  141.7662  162.8179 C.ar    1  UNL1       -0.0186
     18 C         140.9145  141.5024  162.0306 C.ar    1  UNL1       -0.0041
     19 C         140.6002  142.3336  160.8220 C.ar    1  UNL1       -0.0003
     20 C         141.5351  143.4283  160.4009 C.ar    1  UNL1       -0.0000
     21 C         142.7844  143.6920  161.1883 C.ar    1  UNL1       -0.0003
     22 C         143.0986  142.8609  162.3968 C.ar    1  UNL1       -0.0041
     23 C         141.5317  142.3266  164.5531 C.ar    1  UNL1        0.0165
     24 C         142.3568  143.5538  164.3019 C.ar    1  UNL1       -0.0002
     25 C         141.8280  144.6455  163.4194 C.ar    1  UNL1        0.0101
     26 C         140.4742  144.5099  162.7882 C.ar    1  UNL1        0.0684
     27 C         139.6491  143.2827  163.0394 C.ar    1  UNL1        0.0101
     28 C         140.1778  142.1910  163.9219 C.ar    1  UNL1       -0.0002
     29 C         139.9453  145.6014  161.9057 C.1     1  UNL1        0.1004
     30 N         139.4165  146.6930  161.0232 N.1     1  UNL1       -0.1908
     31 C         143.3055  137.6412  170.2945 C.3     1  UNL1        0.2542
     32 O         143.1936  138.4418  169.0310 O.3     1  UNL1       -0.4562
     33 C         140.5156  142.1005  171.5692 C.1     1  UNL1        0.1200
     34 N         139.9634  142.6528  172.8498 N.1     1  UNL1       -0.1893
     35 C         143.8756  138.9879  162.8430 C.3     1  UNL1        0.0751
     36 N         143.0216  138.1596  161.9295 N.3     1  UNL1       -0.2702
     37 C         141.6682  137.6977  162.3822 C.3     1  UNL1        0.0897
     38 C         143.5209  137.7933  160.5634 C.3     1  UNL1        0.0897
@<TRIPOS>BOND
     1    31    32    1
     2    32     1    1
     3     1     2   ar
     4     2     3   ar
     5     3    33    1
     6    33    34    3
     7     3     4   ar
     8     4     5   ar
     9     5     6   ar
    10     6     7    1
    11     7     8    1
    12     7     9    1
    13     9    10    1
    14     9    11    1
    15    11    35    1
    16    35    36    1
    17    36    37    1
    18    36    38    1
    19    11    12    1
    20    12    17    1
    21    17    18   ar
    22    18    19   ar
    23    19    20   ar
    24    20    21   ar
    25    21    22   ar
    26    12    13    1
    27    13    23    1
    28    23    24   ar
    29    24    25   ar
    30    25    26   ar
    31    26    29    1
    32    29    30    3
    33    26    27   ar
    34    27    28   ar
    35    13    14    1
    36     6     1   ar
    37    13     7    1
    38    28    23   ar
    39    14     5    1
    40    22    17   ar
    41     8    15    1
    42    10    16    1
@<TRIPOS>MOLECULE
*****
 38 42 0 0 0
SMALL
GASTEIGER

@<TRIPOS>ATOM
      1 C         140.4324  140.5440  168.4062 C.ar    1  UNL1        0.2267
      2 N         141.0951  141.3713  169.4674 N.ar    1  UNL1       -0.2012
      3 C         142.2316  142.2820  169.1079 C.ar    1  UNL1        0.1552
      4 C         142.7053  142.3653  167.6872 C.ar    1  UNL1        0.0665
      5 C         142.0426  141.5380  166.6259 C.ar    1  UNL1        0.1439
      6 C         140.9062  140.6274  166.9854 C.ar    1  UNL1        0.0948
      7 C         140.4512  139.9375  165.7336 C.3     1  UNL1        0.1757
      8 O         139.5959  139.4532  166.8667 O.3     1  UNL1       -0.3764
      9 C         139.4676  138.9482  165.1821 C.3     1  UNL1        0.1444
     10 O         138.4206  138.2149  165.9667 O.3     1  UNL1       -0.3815
     11 C         139.7151  138.8212  163.7081 C.3     1  UNL1        0.0535
     12 C         140.8515  139.7318  163.3486 C.3     1  UNL1        0.0694
     13 C         141.3065  140.4217  164.6004 C.3     1  UNL1        0.1835
     14 O         142.2900  141.4109  165.1519 O.3     1  UNL1       -0.4755
     15 H         139.8726  139.8870  167.6890 H       1  UNL1        0.2109
     16 H         138.4723  138.4775  166.8991 H       1  UNL1        0.2105
     17 C         141.4313  139.9196  161.9779 C.ar    1  UNL1       -0.0186
     18 C         140.8928  140.9906  161.0763 C.ar    1  UNL1       -0.0041
     19 C         141.4725  141.1785  159.7055 C.ar    1  UNL1       -0.0003
     20 C         142.5906  140.2953  159.2366 C.ar    1  UNL1       -0.0000
     21 C         143.1290  139.2243  160.1384 C.ar    1  UNL1       -0.0003
     22 C         142.5493  139.0365  161.5091 C.ar    1  UNL1       -0.0041
     23 C         142.1617  140.9060  163.4672 C.ar    1  UNL1        0.0165
     24 C         143.4270  140.1795  163.1190 C.ar    1  UNL1       -0.0002
     25 C         144.2823  140.6637  161.9858 C.ar    1  UNL1        0.0101
     26 C         143.8723  141.8743  161.2009 C.ar    1  UNL1        0.0684
     27 C         142.6070  142.6008  161.5492 C.ar    1  UNL1        0.0101
     28 C         141.7517  142.1167  162.6823 C.ar    1  UNL1       -0.0002
     29 C         144.7275  142.3586  160.0678 C.1     1  UNL1        0.1004
     30 N         145.5828  142.8428  158.9346 N.1     1  UNL1       -0.1908
     31 C         138.3742  139.9933  169.8929 C.3     1  UNL1        0.2542
     32 O         139.2960  139.6334  168.7656 O.3     1  UNL1       -0.4562
     33 C         142.8943  143.1093  170.1693 C.1     1  UNL1        0.1200
     34 N         143.5569  143.9366  171.2306 N.1     1  UNL1       -0.1893
     35 C         138.9588  137.9384  162.7600 C.3     1  UNL1        0.0751
     36 N         138.5113  138.4735  161.4321 N.3     1  UNL1       -0.2702
     37 C         139.1420  137.9679  160.1686 C.3     1  UNL1        0.0897
     38 C         137.4329  139.5141  161.3677 C.3     1  UNL1        0.0897
@<TRIPOS>BOND
     1    31    32    1
     2    32     1    1
     3     1     2   ar
     4     2     3   ar
     5     3    33    1
     6    33    34    3
     7     3     4   ar
     8     4     5   ar
     9     5     6   ar
    10     6     7    1
    11     7     8    1
    12     7     9    1
    13     9    10    1
    14     9    11    1
    15    11    35    1
    16    35    36    1
    17    36    37    1
    18    36    38    1
    19    11    12    1
    20    12    17    1
    21    17    18   ar
    22    18    19   ar
    23    19    20   ar
    24    20    21   ar
    25    21    22   ar
    26    12    13    1
    27    13    23    1
    28    23    24   ar
    29    24    25   ar
    30    25    26   ar
    31    26    29    1
    32    29    30    3
    33    26    27   ar
    34    27    28   ar
    35    13    14    1
    36     6     1   ar
    37    13     7    1
    38    28    23   ar
    39    14     5    1
    40    22    17   ar
    41     8    15    1
    42    10    16    1
@<TRIPOS>MOLECULE
*****
 38 42 0 0 0
SMALL
GASTEIGER

@<TRIPOS>ATOM
      1 C         140.8138  141.7050  167.7412 C.ar    1  UNL1        0.2267
      2 N         141.4519  140.8470  168.7931 N.ar    1  UNL1       -0.2012
      3 C         142.2065  139.6124  168.3979 C.ar    1  UNL1        0.1552
      4 C         142.3230  139.2357  166.9507 C.ar    1  UNL1        0.0665
      5 C         141.6849  140.0936  165.8987 C.ar    1  UNL1        0.1439
      6 C         140.9303  141.3283  166.2940 C.ar    1  UNL1        0.0948
      7 C         140.4106  141.9740  165.0438 C.3     1  UNL1        0.1757
      8 O         139.9772  142.8096  166.2117 O.3     1  UNL1       -0.3764
      9 C         139.6231  143.1362  164.5154 C.3     1  UNL1        0.1444
     10 O         138.9985  144.2245  165.3371 O.3     1  UNL1       -0.3815
     11 C         139.5698  143.0189  163.0209 C.3     1  UNL1        0.0535
     12 C         140.3244  141.7842  162.6256 C.3     1  UNL1        0.0694
     13 C         140.8441  141.1385  163.8758 C.3     1  UNL1        0.1835
     14 O         141.6316  139.9763  164.4043 O.3     1  UNL1       -0.4755
     15 H         140.3027  142.4102  167.0335 H       1  UNL1        0.2109
     16 H         139.1807  144.0654  166.2765 H       1  UNL1        0.2105
     17 C         140.5243  141.2833  161.2260 C.ar    1  UNL1       -0.0186
     18 C         139.5247  140.3467  160.6148 C.ar    1  UNL1       -0.0041
     19 C         139.7245  139.8457  159.2150 C.ar    1  UNL1       -0.0003
     20 C         140.9240  140.2813  158.4266 C.ar    1  UNL1       -0.0000
     21 C         141.9236  141.2179  159.0380 C.ar    1  UNL1       -0.0003
     22 C         141.7237  141.7189  160.4376 C.ar    1  UNL1       -0.0041
     23 C         141.2775  140.3030  162.7079 C.ar    1  UNL1        0.0165
     24 C         142.5883  140.5797  162.0332 C.ar    1  UNL1       -0.0002
     25 C         143.0218  139.7442  160.8652 C.ar    1  UNL1        0.0101
     26 C         142.1445  138.6320  160.3721 C.ar    1  UNL1        0.0684
     27 C         140.8337  138.3553  161.0468 C.ar    1  UNL1        0.0101
     28 C         140.4001  139.1907  162.2147 C.ar    1  UNL1       -0.0002
     29 C         142.5779  137.7965  159.2042 C.1     1  UNL1        0.1004
     30 N         143.0113  136.9610  158.0362 N.1     1  UNL1       -0.1908
     31 C         140.3725  143.6275  169.4320 C.3     1  UNL1        0.2542
     32 O         140.0592  142.9396  168.1364 O.3     1  UNL1       -0.4562
     33 C         142.8447  138.7544  169.4500 C.1     1  UNL1        0.1200
     34 N         143.4828  137.8965  170.5020 N.1     1  UNL1       -0.1893
     35 C         138.8826  143.9694  162.0859 C.3     1  UNL1        0.0751
     36 N         139.6737  145.0302  161.3796 N.3     1  UNL1       -0.2702
     37 C         140.0115  146.3095  162.0864 C.3     1  UNL1        0.0897
     38 C         140.1271  144.8119  159.9666 C.3     1  UNL1        0.0897
@<TRIPOS>BOND
     1    31    32    1
     2    32     1    1
     3     1     2   ar
     4     2     3   ar
     5     3    33    1
     6    33    34    3
     7     3     4   ar
     8     4     5   ar
     9     5     6   ar
    10     6     7    1
    11     7     8    1
    12     7     9    1
    13     9    10    1
    14     9    11    1
    15    11    35    1
    16    35    36    1
    17    36    37    1
    18    36    38    1
    19    11    12    1
    20    12    17    1
    21    17    18   ar
    22    18    19   ar
    23    19    20   ar
    24    20    21   ar
    25    21    22   ar
    26    12    13    1
    27    13    23    1
    28    23    24   ar
    29    24    25   ar
    30    25    26   ar
    31    26    29    1
    32    29    30    3
    33    26    27   ar
    34    27    28   ar
    35    13    14    1
    36     6     1   ar
    37    13     7    1
    38    28    23   ar
    39    14     5    1
    40    22    17   ar
    41     8    15    1
    42    10    16    1
