@<TRIPOS>MOLECULE
*****
 36 40 0 0 0
SMALL
GASTEIGER

@<TRIPOS>ATOM
      1 C         143.4621  141.6036  162.5974 C.ar    1  UNL1        0.0783
      2 C         142.7470  141.0349  161.4078 C.ar    1  UNL1        0.1053
      3 N         141.3322  140.5553  161.5419 N.ar    1  UNL1       -0.2290
      4 C         140.6324  140.6442  162.8657 C.ar    1  UNL1        0.1321
      5 C         141.3475  141.2128  164.0553 C.ar    1  UNL1        0.0383
      6 C         140.9186  141.4256  165.4768 C.ar    1  UNL1        0.0098
      7 C         142.0685  142.0368  166.2213 C.ar    1  UNL1        0.0296
      8 S         143.2080  142.2018  165.2598 S.2     1  UNL1       -0.0866
      9 C         142.7624  141.6925  163.9212 C.ar    1  UNL1        0.0380
     10 C         142.0773  142.4164  167.6724 C.ar    1  UNL1        0.0060
     11 C         143.3338  142.2696  168.4784 C.ar    1  UNL1        0.0005
     12 C         143.3426  142.6493  169.9296 C.ar    1  UNL1        0.0000
     13 C         142.0950  143.1758  170.5747 C.ar    1  UNL1        0.0000
     14 C         140.8385  143.3226  169.7687 C.ar    1  UNL1        0.0000
     15 C         140.8297  142.9429  168.3176 C.ar    1  UNL1        0.0005
     16 N         145.1852  143.2829  161.6171 N.am    1  UNL1       -0.3253
     17 C         144.8770  142.0833  162.4633 C.2     1  UNL1        0.2448
     18 O         145.9838  141.3633  163.1753 O.2     1  UNL1       -0.2703
     19 H         146.1139  143.5977  161.5291 H       1  UNL1        0.1453
     20 H         144.4589  143.7554  161.1498 H       1  UNL1        0.1453
     21 N         139.2174  140.1644  162.9997 N.pl3   1  UNL1       -0.2932
     22 C         138.8340  139.2692  164.1406 C.3     1  UNL1        0.0899
     23 C         138.1749  139.8465  165.3581 C.3     1  UNL1        0.0226
     24 C         137.7914  138.9513  166.4989 C.3     1  UNL1        0.0188
     25 C         138.0671  137.4789  166.4223 C.3     1  UNL1        0.0687
     26 N         138.7263  136.9016  165.2048 N.3     1  UNL1       -0.2961
     27 C         139.1097  137.7968  164.0640 C.3     1  UNL1        0.0886
     28 H         138.0872  136.2016  164.8280 H       1  UNL1        0.1233
     29 C         138.1861  140.5799  161.9929 C.3     1  UNL1        0.0968
     30 C         137.7210  142.0050  161.9402 C.3     1  UNL1        0.0478
     31 C         138.3170  143.0232  162.8664 C.ar    1  UNL1       -0.0205
     32 C         137.7697  143.1869  164.2534 C.ar    1  UNL1       -0.0042
     33 C         138.3657  144.2051  165.1796 C.ar    1  UNL1       -0.0003
     34 C         139.5091  145.0597  164.7189 C.ar    1  UNL1       -0.0000
     35 C         140.0565  144.8961  163.3320 C.ar    1  UNL1       -0.0003
     36 C         139.4604  143.8778  162.4058 C.ar    1  UNL1       -0.0042
@<TRIPOS>BOND
     1    16    17   am
     2    17    18    2
     3    17     1    1
     4     1     2   ar
     5     2     3   ar
     6     3     4   ar
     7     4    21    1
     8    21    29    1
     9    29    30    1
    10    30    31    1
    11    31    32   ar
    12    32    33   ar
    13    33    34   ar
    14    34    35   ar
    15    35    36   ar
    16    22    21    1
    17    22    23    1
    18    23    24    1
    19    24    25    1
    20    25    26    1
    21    26    27    1
    22     4     5   ar
    23     5     6   ar
    24     6     7   ar
    25     7    10    1
    26    10    11   ar
    27    11    12   ar
    28    12    13   ar
    29    13    14   ar
    30    14    15   ar
    31     7     8   ar
    32     8     9   ar
    33     9     1   ar
    34    36    31   ar
    35    27    22    1
    36     9     5   ar
    37    15    10   ar
    38    16    19    1
    39    16    20    1
    40    26    28    1
@<TRIPOS>MOLECULE
*****
 36 40 0 0 0
SMALL
GASTEIGER

@<TRIPOS>ATOM
      1 C         142.8040  139.1763  160.0867 C.ar    1  UNL1        0.0783
      2 C         143.6975  140.2183  159.4819 C.ar    1  UNL1        0.1053
      3 N         143.8399  141.5582  160.1407 N.ar    1  UNL1       -0.2290
      4 C         143.0886  141.8563  161.4044 C.ar    1  UNL1        0.1321
      5 C         142.1951  140.8144  162.0092 C.ar    1  UNL1        0.0383
      6 C         141.3359  140.8200  163.2387 C.ar    1  UNL1        0.0098
      7 C         140.6626  139.4834  163.3398 C.ar    1  UNL1        0.0296
      8 S         141.1056  138.6517  162.1727 S.2     1  UNL1       -0.0866
      9 C         142.0528  139.4743  161.3504 C.ar    1  UNL1        0.0380
     10 C         139.7130  139.0539  164.4186 C.ar    1  UNL1        0.0060
     11 C         139.3988  137.5992  164.6056 C.ar    1  UNL1        0.0005
     12 C         138.4491  137.1697  165.6844 C.ar    1  UNL1        0.0000
     13 C         137.8137  138.1949  166.5762 C.ar    1  UNL1        0.0000
     14 C         138.1279  139.6497  166.3891 C.ar    1  UNL1        0.0000
     15 C         139.0776  140.0791  165.3103 C.ar    1  UNL1        0.0005
     16 N         143.2488  136.6166  160.0742 N.am    1  UNL1       -0.3253
     17 C         142.6617  137.8362  159.4279 C.2     1  UNL1        0.2448
     18 O         141.9322  137.7159  158.1227 O.2     1  UNL1       -0.2703
     19 H         143.1554  135.7371  159.6418 H       1  UNL1        0.1453
     20 H         143.7276  136.6956  160.9308 H       1  UNL1        0.1453
     21 N         143.2310  143.1964  162.0632 N.pl3   1  UNL1       -0.2932
     22 C         142.1326  144.2110  161.9442 C.3     1  UNL1        0.0899
     23 C         141.3670  144.3406  160.6609 C.3     1  UNL1        0.0226
     24 C         140.2686  145.3552  160.5419 C.3     1  UNL1        0.0188
     25 C         139.9358  146.2402  161.7064 C.3     1  UNL1        0.0687
     26 N         140.7014  146.1107  162.9898 N.3     1  UNL1       -0.2961
     27 C         141.7998  145.0961  163.1087 C.3     1  UNL1        0.0886
     28 H         140.0208  145.8946  163.7181 H       1  UNL1        0.1233
     29 C         144.4717  143.5219  162.8408 C.3     1  UNL1        0.0968
     30 C         145.2185  142.4324  163.5516 C.3     1  UNL1        0.0478
     31 C         144.4966  141.5268  164.5049 C.ar    1  UNL1       -0.0205
     32 C         143.6053  142.1079  165.5622 C.ar    1  UNL1       -0.0042
     33 C         142.8834  141.2022  166.5154 C.ar    1  UNL1       -0.0003
     34 C         143.0528  139.7155  166.4113 C.ar    1  UNL1       -0.0000
     35 C         143.9441  139.1343  165.3541 C.ar    1  UNL1       -0.0003
     36 C         144.6660  140.0400  164.4008 C.ar    1  UNL1       -0.0042
@<TRIPOS>BOND
     1    16    17   am
     2    17    18    2
     3    17     1    1
     4     1     2   ar
     5     2     3   ar
     6     3     4   ar
     7     4    21    1
     8    21    29    1
     9    29    30    1
    10    30    31    1
    11    31    32   ar
    12    32    33   ar
    13    33    34   ar
    14    34    35   ar
    15    35    36   ar
    16    22    21    1
    17    22    23    1
    18    23    24    1
    19    24    25    1
    20    25    26    1
    21    26    27    1
    22     4     5   ar
    23     5     6   ar
    24     6     7   ar
    25     7    10    1
    26    10    11   ar
    27    11    12   ar
    28    12    13   ar
    29    13    14   ar
    30    14    15   ar
    31     7     8   ar
    32     8     9   ar
    33     9     1   ar
    34    36    31   ar
    35    27    22    1
    36     9     5   ar
    37    15    10   ar
    38    16    19    1
    39    16    20    1
    40    26    28    1
@<TRIPOS>MOLECULE
*****
 36 40 0 0 0
SMALL
GASTEIGER

@<TRIPOS>ATOM
      1 C         143.5954  143.3248  164.0186 C.ar    1  UNL1        0.0783
      2 C         144.2574  143.3848  165.3632 C.ar    1  UNL1        0.1053
      3 N         143.7165  142.5727  166.5024 N.ar    1  UNL1       -0.2290
      4 C         142.5134  141.7006  166.2970 C.ar    1  UNL1        0.1321
      5 C         141.8514  141.6406  164.9523 C.ar    1  UNL1        0.0383
      6 C         140.6601  140.8778  164.4533 C.ar    1  UNL1        0.0098
      7 C         140.4649  141.2186  163.0056 C.ar    1  UNL1        0.0296
      8 S         141.5355  142.1919  162.6099 S.2     1  UNL1       -0.0866
      9 C         142.3924  142.4527  163.8131 C.ar    1  UNL1        0.0380
     10 C         139.3881  140.6804  162.1106 C.ar    1  UNL1        0.0060
     11 C         138.6120  139.4635  162.5190 C.ar    1  UNL1        0.0005
     12 C         137.5353  138.9255  161.6239 C.ar    1  UNL1        0.0000
     13 C         137.2346  139.6042  160.3206 C.ar    1  UNL1        0.0000
     14 C         138.0107  140.8211  159.9122 C.ar    1  UNL1        0.0000
     15 C         139.0874  141.3592  160.8072 C.ar    1  UNL1        0.0005
     16 N         143.9458  145.6246  162.8618 N.am    1  UNL1       -0.3253
     17 C         144.1364  144.1369  162.8794 C.2     1  UNL1        0.2448
     18 O         144.8682  143.4612  161.7576 O.2     1  UNL1       -0.2703
     19 H         144.3009  146.1576  162.1141 H       1  UNL1        0.1453
     20 H         143.4656  146.0681  163.5980 H       1  UNL1        0.1453
     21 N         141.9724  140.8885  167.4363 N.pl3   1  UNL1       -0.2932
     22 C         141.1691  141.5522  168.5153 C.3     1  UNL1        0.0899
     23 C         141.3886  143.0024  168.8293 C.3     1  UNL1        0.0226
     24 C         140.5854  143.6660  169.9083 C.3     1  UNL1        0.0188
     25 C         139.5626  142.8795  170.6733 C.3     1  UNL1        0.0687
     26 N         139.3431  141.4292  170.3593 N.3     1  UNL1       -0.2961
     27 C         140.1464  140.7656  169.2803 C.3     1  UNL1        0.0886
     28 H         138.3618  141.3295  170.0995 H       1  UNL1        0.1233
     29 C         142.2348  139.4129  167.4965 C.3     1  UNL1        0.0968
     30 C         143.2407  138.7918  166.5733 C.3     1  UNL1        0.0478
     31 C         142.8481  138.4269  165.1724 C.ar    1  UNL1       -0.0205
     32 C         143.6750  138.9009  164.0141 C.ar    1  UNL1       -0.0042
     33 C         143.2823  138.5359  162.6132 C.ar    1  UNL1       -0.0003
     34 C         142.0628  137.6970  162.3704 C.ar    1  UNL1       -0.0000
     35 C         141.2359  137.2230  163.5287 C.ar    1  UNL1       -0.0003
     36 C         141.6286  137.5879  164.9297 C.ar    1  UNL1       -0.0042
@<TRIPOS>BOND
     1    16    17   am
     2    17    18    2
     3    17     1    1
     4     1     2   ar
     5     2     3   ar
     6     3     4   ar
     7     4    21    1
     8    21    29    1
     9    29    30    1
    10    30    31    1
    11    31    32   ar
    12    32    33   ar
    13    33    34   ar
    14    34    35   ar
    15    35    36   ar
    16    22    21    1
    17    22    23    1
    18    23    24    1
    19    24    25    1
    20    25    26    1
    21    26    27    1
    22     4     5   ar
    23     5     6   ar
    24     6     7   ar
    25     7    10    1
    26    10    11   ar
    27    11    12   ar
    28    12    13   ar
    29    13    14   ar
    30    14    15   ar
    31     7     8   ar
    32     8     9   ar
    33     9     1   ar
    34    36    31   ar
    35    27    22    1
    36     9     5   ar
    37    15    10   ar
    38    16    19    1
    39    16    20    1
    40    26    28    1
@<TRIPOS>MOLECULE
*****
 36 40 0 0 0
SMALL
GASTEIGER

@<TRIPOS>ATOM
      1 C         142.4375  141.3188  167.5380 C.ar    1  UNL1        0.0783
      2 C         142.6937  139.8731  167.8450 C.ar    1  UNL1        0.1053
      3 N         142.4630  138.8304  166.7917 N.ar    1  UNL1       -0.2290
      4 C         141.9760  139.2334  165.4313 C.ar    1  UNL1        0.1321
      5 C         141.7198  140.6791  165.1243 C.ar    1  UNL1        0.0383
      6 C         141.2405  141.3720  163.8833 C.ar    1  UNL1        0.0098
      7 C         141.1750  142.8429  164.1697 C.ar    1  UNL1        0.0296
      8 S         141.6138  143.0591  165.5876 S.2     1  UNL1       -0.0866
      9 C         141.9506  141.7218  166.1777 C.ar    1  UNL1        0.0380
     10 C         140.7459  143.9103  163.2070 C.ar    1  UNL1        0.0060
     11 C         139.5156  144.7217  163.4864 C.ar    1  UNL1        0.0005
     12 C         139.0867  145.7891  162.5237 C.ar    1  UNL1        0.0000
     13 C         139.8879  146.0451  161.2817 C.ar    1  UNL1        0.0000
     14 C         141.1182  145.2337  161.0024 C.ar    1  UNL1        0.0000
     15 C         141.5472  144.1663  161.9651 C.ar    1  UNL1        0.0005
     16 N         141.5038  142.9523  169.3296 N.am    1  UNL1       -0.3253
     17 C         142.6682  142.3615  168.5913 C.2     1  UNL1        0.2448
     18 O         144.0635  142.8134  168.9065 O.2     1  UNL1       -0.2703
     19 H         141.6552  143.6367  170.0209 H       1  UNL1        0.1453
     20 H         140.5881  142.6558  169.1227 H       1  UNL1        0.1453
     21 N         141.7453  138.1906  164.3780 N.pl3   1  UNL1       -0.2932
     22 C         142.4908  138.2598  163.0782 C.3     1  UNL1        0.0899
     23 C         141.8440  137.7722  161.8157 C.3     1  UNL1        0.0226
     24 C         142.5894  137.8414  160.5159 C.3     1  UNL1        0.0188
     25 C         143.9818  138.3982  160.4786 C.3     1  UNL1        0.0687
     26 N         144.6286  138.8858  161.7411 N.3     1  UNL1       -0.2961
     27 C         143.8831  138.8166  163.0409 C.3     1  UNL1        0.0886
     28 H         144.8670  139.8660  161.5902 H       1  UNL1        0.1233
     29 C         140.7692  137.0787  164.6245 C.3     1  UNL1        0.0968
     30 C         139.3225  137.3911  164.8682 C.3     1  UNL1        0.0478
     31 C         138.7163  138.6356  164.2904 C.ar    1  UNL1       -0.0205
     32 C         138.3267  139.7689  165.1927 C.ar    1  UNL1       -0.0042
     33 C         137.7205  141.0132  164.6148 C.ar    1  UNL1       -0.0003
     34 C         137.5038  141.1244  163.1347 C.ar    1  UNL1       -0.0000
     35 C         137.8933  139.9912  162.2324 C.ar    1  UNL1       -0.0003
     36 C         138.4995  138.7468  162.8104 C.ar    1  UNL1       -0.0042
@<TRIPOS>BOND
     1    16    17   am
     2    17    18    2
     3    17     1    1
     4     1     2   ar
     5     2     3   ar
     6     3     4   ar
     7     4    21    1
     8    21    29    1
     9    29    30    1
    10    30    31    1
    11    31    32   ar
    12    32    33   ar
    13    33    34   ar
    14    34    35   ar
    15    35    36   ar
    16    22    21    1
    17    22    23    1
    18    23    24    1
    19    24    25    1
    20    25    26    1
    21    26    27    1
    22     4     5   ar
    23     5     6   ar
    24     6     7   ar
    25     7    10    1
    26    10    11   ar
    27    11    12   ar
    28    12    13   ar
    29    13    14   ar
    30    14    15   ar
    31     7     8   ar
    32     8     9   ar
    33     9     1   ar
    34    36    31   ar
    35    27    22    1
    36     9     5   ar
    37    15    10   ar
    38    16    19    1
    39    16    20    1
    40    26    28    1
@<TRIPOS>MOLECULE
*****
 36 40 0 0 0
SMALL
GASTEIGER

@<TRIPOS>ATOM
      1 C         138.7226  139.8898  161.3466 C.ar    1  UNL1        0.0783
      2 C         139.3783  140.4478  160.1183 C.ar    1  UNL1        0.1053
      3 N         140.5093  141.4242  160.2498 N.ar    1  UNL1       -0.2290
      4 C         140.9847  141.8427  161.6096 C.ar    1  UNL1        0.1321
      5 C         140.3289  141.2847  162.8379 C.ar    1  UNL1        0.0383
      6 C         140.5794  141.5098  164.2995 C.ar    1  UNL1        0.0098
      7 C         139.6032  140.6725  165.0714 C.ar    1  UNL1        0.0296
      8 S         138.7494  139.9299  164.0868 S.2     1  UNL1       -0.0866
      9 C         139.1979  140.3082  162.7064 C.ar    1  UNL1        0.0380
     10 C         139.4990  140.5919  166.5656 C.ar    1  UNL1        0.0060
     11 C         140.2816  141.5407  167.4243 C.ar    1  UNL1        0.0005
     12 C         140.1774  141.4601  168.9185 C.ar    1  UNL1        0.0000
     13 C         139.2906  140.4307  169.5541 C.ar    1  UNL1        0.0000
     14 C         138.5080  139.4818  168.6955 C.ar    1  UNL1        0.0000
     15 C         138.6123  139.5625  167.2012 C.ar    1  UNL1        0.0005
     16 N         136.3792  139.2740  160.4089 N.am    1  UNL1       -0.3253
     17 C         137.5916  138.9133  161.2151 C.2     1  UNL1        0.2448
     18 O         137.6729  137.5760  161.8899 O.2     1  UNL1       -0.2703
     19 H         135.6369  138.6331  160.3226 H       1  UNL1        0.1453
     20 H         136.3258  140.1517  159.9660 H       1  UNL1        0.1453
     21 N         142.1157  142.8192  161.7410 N.pl3   1  UNL1       -0.2932
     22 C         143.3715  142.4201  162.4577 C.3     1  UNL1        0.0899
     23 C         143.8005  143.1620  163.6888 C.3     1  UNL1        0.0226
     24 C         145.0563  142.7629  164.4055 C.3     1  UNL1        0.0188
     25 C         145.8832  141.6220  163.8910 C.3     1  UNL1        0.0687
     26 N         145.4542  140.8802  162.6599 N.3     1  UNL1       -0.2961
     27 C         144.1984  141.2792  161.9433 C.3     1  UNL1        0.0886
     28 H         145.3416  139.9028  162.9293 H       1  UNL1        0.1233
     29 C         141.9909  144.1946  161.1558 C.3     1  UNL1        0.0968
     30 C         141.2680  145.2690  161.9129 C.3     1  UNL1        0.0478
     31 C         140.1411  144.9082  162.8348 C.ar    1  UNL1       -0.0205
     32 C         140.3465  144.9439  164.3203 C.ar    1  UNL1       -0.0042
     33 C         139.2196  144.5831  165.2421 C.ar    1  UNL1       -0.0003
     34 C         137.8872  144.1867  164.6786 C.ar    1  UNL1       -0.0000
     35 C         137.6817  144.1510  163.1932 C.ar    1  UNL1       -0.0003
     36 C         138.8087  144.5118  162.2713 C.ar    1  UNL1       -0.0042
@<TRIPOS>BOND
     1    16    17   am
     2    17    18    2
     3    17     1    1
     4     1     2   ar
     5     2     3   ar
     6     3     4   ar
     7     4    21    1
     8    21    29    1
     9    29    30    1
    10    30    31    1
    11    31    32   ar
    12    32    33   ar
    13    33    34   ar
    14    34    35   ar
    15    35    36   ar
    16    22    21    1
    17    22    23    1
    18    23    24    1
    19    24    25    1
    20    25    26    1
    21    26    27    1
    22     4     5   ar
    23     5     6   ar
    24     6     7   ar
    25     7    10    1
    26    10    11   ar
    27    11    12   ar
    28    12    13   ar
    29    13    14   ar
    30    14    15   ar
    31     7     8   ar
    32     8     9   ar
    33     9     1   ar
    34    36    31   ar
    35    27    22    1
    36     9     5   ar
    37    15    10   ar
    38    16    19    1
    39    16    20    1
    40    26    28    1
@<TRIPOS>MOLECULE
*****
 36 40 0 0 0
SMALL
GASTEIGER

@<TRIPOS>ATOM
      1 C         138.6948  138.5552  165.6734 C.ar    1  UNL1        0.0783
      2 C         138.5967  138.2327  164.2118 C.ar    1  UNL1        0.1053
      3 N         139.4662  138.9534  163.2248 N.ar    1  UNL1       -0.2290
      4 C         140.4339  139.9969  163.6993 C.ar    1  UNL1        0.1321
      5 C         140.5319  140.3194  165.1609 C.ar    1  UNL1        0.0383
      6 C         141.3857  141.2922  165.9190 C.ar    1  UNL1        0.0098
      7 C         141.0438  141.1726  167.3746 C.ar    1  UNL1        0.0296
      8 S         139.9787  140.1259  167.5161 S.2     1  UNL1       -0.0866
      9 C         139.6623  139.5986  166.1480 C.ar    1  UNL1        0.0380
     10 C         141.6591  141.9612  168.4924 C.ar    1  UNL1        0.0060
     11 C         143.0921  141.7321  168.8718 C.ar    1  UNL1        0.0005
     12 C         143.7072  142.5208  169.9896 C.ar    1  UNL1        0.0000
     13 C         142.8894  143.5385  170.7282 C.ar    1  UNL1        0.0000
     14 C         141.4564  143.7676  170.3488 C.ar    1  UNL1        0.0000
     15 C         140.8412  142.9789  169.2310 C.ar    1  UNL1        0.0005
     16 N         137.4750  136.3928  166.4390 N.am    1  UNL1       -0.3253
     17 C         137.8252  137.8344  166.6605 C.2     1  UNL1        0.2448
     18 O         137.3058  138.5553  167.8691 O.2     1  UNL1       -0.2703
     19 H         136.9043  135.9197  167.0869 H       1  UNL1        0.1453
     20 H         137.8159  135.9197  165.6458 H       1  UNL1        0.1453
     21 N         141.3034  140.7176  162.7121 N.pl3   1  UNL1       -0.2932
     22 C         142.7647  140.9034  162.9953 C.3     1  UNL1        0.0899
     23 C         143.3560  142.2818  163.0124 C.3     1  UNL1        0.0226
     24 C         144.8172  142.4676  163.2956 C.3     1  UNL1        0.0188
     25 C         145.6871  141.2750  163.5618 C.3     1  UNL1        0.0687
     26 N         145.0958  139.8965  163.5448 N.3     1  UNL1       -0.2961
     27 C         143.6346  139.7108  163.2615 C.3     1  UNL1        0.0886
     28 H         145.2719  139.4893  164.4632 H       1  UNL1        0.1233
     29 C         140.7117  141.2526  161.4418 C.3     1  UNL1        0.0968
     30 C         139.5381  142.1851  161.4957 C.3     1  UNL1        0.0478
     31 C         139.2873  143.0047  162.7267 C.ar    1  UNL1       -0.0205
     32 C         140.2802  144.0467  163.1493 C.ar    1  UNL1       -0.0042
     33 C         140.0294  144.8663  164.3802 C.ar    1  UNL1       -0.0003
     34 C         138.7857  144.6439  165.1888 C.ar    1  UNL1       -0.0000
     35 C         137.7927  143.6020  164.7663 C.ar    1  UNL1       -0.0003
     36 C         138.0436  142.7824  163.5353 C.ar    1  UNL1       -0.0042
@<TRIPOS>BOND
     1    16    17   am
     2    17    18    2
     3    17     1    1
     4     1     2   ar
     5     2     3   ar
     6     3     4   ar
     7     4    21    1
     8    21    29    1
     9    29    30    1
    10    30    31    1
    11    31    32   ar
    12    32    33   ar
    13    33    34   ar
    14    34    35   ar
    15    35    36   ar
    16    22    21    1
    17    22    23    1
    18    23    24    1
    19    24    25    1
    20    25    26    1
    21    26    27    1
    22     4     5   ar
    23     5     6   ar
    24     6     7   ar
    25     7    10    1
    26    10    11   ar
    27    11    12   ar
    28    12    13   ar
    29    13    14   ar
    30    14    15   ar
    31     7     8   ar
    32     8     9   ar
    33     9     1   ar
    34    36    31   ar
    35    27    22    1
    36     9     5   ar
    37    15    10   ar
    38    16    19    1
    39    16    20    1
    40    26    28    1
@<TRIPOS>MOLECULE
*****
 36 40 0 0 0
SMALL
GASTEIGER

@<TRIPOS>ATOM
      1 C         140.7113  143.7156  162.4043 C.ar    1  UNL1        0.0783
      2 C         141.8182  143.9887  161.4296 C.ar    1  UNL1        0.1053
      3 N         142.7454  142.8836  161.0187 N.ar    1  UNL1       -0.2290
      4 C         142.5657  141.5051  161.5825 C.ar    1  UNL1        0.1321
      5 C         141.4587  141.2320  162.5572 C.ar    1  UNL1        0.0383
      6 C         141.0388  139.9837  163.2750 C.ar    1  UNL1        0.0098
      7 C         139.8521  140.3174  164.1296 C.ar    1  UNL1        0.0296
      8 S         139.5386  141.7719  163.9399 S.2     1  UNL1       -0.0866
      9 C         140.5316  142.3372  162.9681 C.ar    1  UNL1        0.0380
     10 C         139.1092  139.3639  165.0178 C.ar    1  UNL1        0.0060
     11 C         138.9839  137.9203  164.6300 C.ar    1  UNL1        0.0005
     12 C         138.2410  136.9669  165.5184 C.ar    1  UNL1        0.0000
     13 C         137.6234  137.4570  166.7945 C.ar    1  UNL1        0.0000
     14 C         137.7487  138.9005  167.1823 C.ar    1  UNL1        0.0000
     15 C         138.4916  139.8540  166.2939 C.ar    1  UNL1        0.0005
     16 N         139.7782  145.3061  164.2346 N.am    1  UNL1       -0.3253
     17 C         139.7841  144.8208  162.8153 C.2     1  UNL1        0.2448
     18 O         138.8627  145.4407  161.8068 O.2     1  UNL1       -0.2703
     19 H         139.1697  146.0314  164.5043 H       1  UNL1        0.1453
     20 H         140.3829  144.8992  164.8964 H       1  UNL1        0.1453
     21 N         143.4929  140.4000  161.1715 N.pl3   1  UNL1       -0.2932
     22 C         143.3525  139.7674  159.8187 C.3     1  UNL1        0.0899
     23 C         142.5620  138.5025  159.6606 C.3     1  UNL1        0.0226
     24 C         142.4217  137.8699  158.3078 C.3     1  UNL1        0.0188
     25 C         143.0718  138.5023  157.1130 C.3     1  UNL1        0.0687
     26 N         143.8623  139.7673  157.2711 N.3     1  UNL1       -0.2961
     27 C         144.0027  140.3998  158.6239 C.3     1  UNL1        0.0886
     28 H         143.4289  140.4631  156.6642 H       1  UNL1        0.1233
     29 C         144.5604  139.9274  162.1133 C.3     1  UNL1        0.0968
     30 C         144.8633  140.7097  163.3569 C.3     1  UNL1        0.0478
     31 C         144.1311  140.4066  164.6305 C.ar    1  UNL1       -0.0205
     32 C         143.5311  141.5218  165.4344 C.ar    1  UNL1       -0.0042
     33 C         142.7990  141.2187  166.7080 C.ar    1  UNL1       -0.0003
     34 C         142.6668  139.8003  167.1777 C.ar    1  UNL1       -0.0000
     35 C         143.2668  138.6850  166.3739 C.ar    1  UNL1       -0.0003
     36 C         143.9989  138.9882  165.1002 C.ar    1  UNL1       -0.0042
@<TRIPOS>BOND
     1    16    17   am
     2    17    18    2
     3    17     1    1
     4     1     2   ar
     5     2     3   ar
     6     3     4   ar
     7     4    21    1
     8    21    29    1
     9    29    30    1
    10    30    31    1
    11    31    32   ar
    12    32    33   ar
    13    33    34   ar
    14    34    35   ar
    15    35    36   ar
    16    22    21    1
    17    22    23    1
    18    23    24    1
    19    24    25    1
    20    25    26    1
    21    26    27    1
    22     4     5   ar
    23     5     6   ar
    24     6     7   ar
    25     7    10    1
    26    10    11   ar
    27    11    12   ar
    28    12    13   ar
    29    13    14   ar
    30    14    15   ar
    31     7     8   ar
    32     8     9   ar
    33     9     1   ar
    34    36    31   ar
    35    27    22    1
    36     9     5   ar
    37    15    10   ar
    38    16    19    1
    39    16    20    1
    40    26    28    1
@<TRIPOS>MOLECULE
*****
 36 40 0 0 0
SMALL
GASTEIGER

@<TRIPOS>ATOM
      1 C         140.7801  144.2366  161.2881 C.ar    1  UNL1        0.0783
      2 C         141.4183  144.1192  159.9358 C.ar    1  UNL1        0.1053
      3 N         141.8632  142.7790  159.4302 N.ar    1  UNL1       -0.2290
      4 C         141.6698  141.5559  160.2770 C.ar    1  UNL1        0.1321
      5 C         141.0315  141.6733  161.6293 C.ar    1  UNL1        0.0383
      6 C         140.7123  140.6520  162.6805 C.ar    1  UNL1        0.0098
      7 C         140.0702  141.3612  163.8358 C.ar    1  UNL1        0.0296
      8 S         139.9925  142.8207  163.4986 S.2     1  UNL1       -0.0866
      9 C         140.5867  143.0136  162.1349 C.ar    1  UNL1        0.0380
     10 C         139.5900  140.7229  165.1055 C.ar    1  UNL1        0.0060
     11 C         138.4886  139.7055  165.0635 C.ar    1  UNL1        0.0005
     12 C         138.0085  139.0672  166.3332 C.ar    1  UNL1        0.0000
     13 C         138.6297  139.4463  167.6448 C.ar    1  UNL1        0.0000
     14 C         139.7311  140.4637  167.6868 C.ar    1  UNL1        0.0000
     15 C         140.2112  141.1020  166.4171 C.ar    1  UNL1        0.0005
     16 N         140.9908  146.1783  163.0014 N.am    1  UNL1       -0.3253
     17 C         140.3352  145.5769  161.7937 C.2     1  UNL1        0.2448
     18 O         139.2347  146.3159  161.0915 O.2     1  UNL1       -0.2703
     19 H         140.6988  147.0580  163.3332 H       1  UNL1        0.1453
     20 H         141.7130  145.6933  163.4622 H       1  UNL1        0.1453
     21 N         142.1147  140.2156  159.7713 N.pl3   1  UNL1       -0.2932
     22 C         141.3069  139.5016  158.7284 C.3     1  UNL1        0.0899
     23 C         141.9784  138.5565  157.7766 C.3     1  UNL1        0.0226
     24 C         141.1706  137.8425  156.7337 C.3     1  UNL1        0.0188
     25 C         139.6913  138.0737  156.6425 C.3     1  UNL1        0.0687
     26 N         139.0198  139.0188  157.5943 N.3     1  UNL1       -0.2961
     27 C         139.8276  139.7328  158.6372 C.3     1  UNL1        0.0886
     28 H         138.3082  138.4817  158.0897 H       1  UNL1        0.1233
     29 C         143.3674  139.5893  160.3085 C.3     1  UNL1        0.0968
     30 C         143.3002  138.2727  161.0241 C.3     1  UNL1        0.0478
     31 C         142.9350  138.2272  162.4783 C.ar    1  UNL1       -0.0205
     32 C         141.7306  137.4529  162.9253 C.ar    1  UNL1       -0.0042
     33 C         141.3655  137.4075  164.3794 C.ar    1  UNL1       -0.0003
     34 C         142.2047  138.1363  165.3866 C.ar    1  UNL1       -0.0000
     35 C         143.4092  138.9106  164.9397 C.ar    1  UNL1       -0.0003
     36 C         143.7743  138.9560  163.4855 C.ar    1  UNL1       -0.0042
@<TRIPOS>BOND
     1    16    17   am
     2    17    18    2
     3    17     1    1
     4     1     2   ar
     5     2     3   ar
     6     3     4   ar
     7     4    21    1
     8    21    29    1
     9    29    30    1
    10    30    31    1
    11    31    32   ar
    12    32    33   ar
    13    33    34   ar
    14    34    35   ar
    15    35    36   ar
    16    22    21    1
    17    22    23    1
    18    23    24    1
    19    24    25    1
    20    25    26    1
    21    26    27    1
    22     4     5   ar
    23     5     6   ar
    24     6     7   ar
    25     7    10    1
    26    10    11   ar
    27    11    12   ar
    28    12    13   ar
    29    13    14   ar
    30    14    15   ar
    31     7     8   ar
    32     8     9   ar
    33     9     1   ar
    34    36    31   ar
    35    27    22    1
    36     9     5   ar
    37    15    10   ar
    38    16    19    1
    39    16    20    1
    40    26    28    1
@<TRIPOS>MOLECULE
*****
 36 40 0 0 0
SMALL
GASTEIGER

@<TRIPOS>ATOM
      1 C         141.4377  140.1779  168.0478 C.ar    1  UNL1        0.0783
      2 C         142.5573  139.1838  168.1376 C.ar    1  UNL1        0.1053
      3 N         143.4297  138.9270  166.9448 N.ar    1  UNL1       -0.2290
      4 C         143.1825  139.6643  165.6620 C.ar    1  UNL1        0.1321
      5 C         142.0629  140.6584  165.5723 C.ar    1  UNL1        0.0383
      6 C         141.5820  141.5298  164.4500 C.ar    1  UNL1        0.0098
      7 C         140.4123  142.3251  164.9493 C.ar    1  UNL1        0.0296
      8 S         140.1703  141.9453  166.3801 S.2     1  UNL1       -0.0866
      9 C         141.1904  140.9153  166.7651 C.ar    1  UNL1        0.0380
     10 C         139.6231  143.3248  164.1569 C.ar    1  UNL1        0.0060
     11 C         138.1263  143.2365  164.1165 C.ar    1  UNL1        0.0005
     12 C         137.3372  144.2362  163.3241 C.ar    1  UNL1        0.0000
     13 C         138.0448  145.3242  162.5721 C.ar    1  UNL1        0.0000
     14 C         139.5417  145.4125  162.6124 C.ar    1  UNL1        0.0000
     15 C         140.3308  144.4127  163.4049 C.ar    1  UNL1        0.0005
     16 N         139.1781  139.8662  169.2917 N.am    1  UNL1       -0.3253
     17 C         140.5652  140.4348  169.2407 C.2     1  UNL1        0.2448
     18 O         141.0800  141.2602  170.3825 O.2     1  UNL1       -0.2703
     19 H         138.6055  140.0347  170.0746 H       1  UNL1        0.1453
     20 H         138.8403  139.3244  168.5423 H       1  UNL1        0.1453
     21 N         144.0550  139.4074  164.4692 N.pl3   1  UNL1       -0.2932
     22 C         143.4669  138.8126  163.2241 C.3     1  UNL1        0.0899
     23 C         144.0409  139.1614  161.8829 C.3     1  UNL1        0.0226
     24 C         143.4528  138.5666  160.6378 C.3     1  UNL1        0.0188
     25 C         142.2907  137.6229  160.7339 C.3     1  UNL1        0.0687
     26 N         141.7168  137.2742  162.0751 N.3     1  UNL1       -0.2961
     27 C         142.3048  137.8690  163.3202 C.3     1  UNL1        0.0886
     28 H         141.7871  136.2611  162.1711 H       1  UNL1        0.1233
     29 C         145.5155  139.7454  164.5215 C.3     1  UNL1        0.0968
     30 C         146.0282  140.9670  163.8182 C.3     1  UNL1        0.0478
     31 C         145.2368  142.2407  163.8541 C.ar    1  UNL1       -0.0205
     32 C         144.7107  142.8331  162.5803 C.ar    1  UNL1       -0.0042
     33 C         143.9193  144.1068  162.6163 C.ar    1  UNL1       -0.0003
     34 C         143.6539  144.7882  163.9260 C.ar    1  UNL1       -0.0000
     35 C         144.1799  144.1959  165.1998 C.ar    1  UNL1       -0.0003
     36 C         144.9714  142.9221  165.1637 C.ar    1  UNL1       -0.0042
@<TRIPOS>BOND
     1    16    17   am
     2    17    18    2
     3    17     1    1
     4     1     2   ar
     5     2     3   ar
     6     3     4   ar
     7     4    21    1
     8    21    29    1
     9    29    30    1
    10    30    31    1
    11    31    32   ar
    12    32    33   ar
    13    33    34   ar
    14    34    35   ar
    15    35    36   ar
    16    22    21    1
    17    22    23    1
    18    23    24    1
    19    24    25    1
    20    25    26    1
    21    26    27    1
    22     4     5   ar
    23     5     6   ar
    24     6     7   ar
    25     7    10    1
    26    10    11   ar
    27    11    12   ar
    28    12    13   ar
    29    13    14   ar
    30    14    15   ar
    31     7     8   ar
    32     8     9   ar
    33     9     1   ar
    34    36    31   ar
    35    27    22    1
    36     9     5   ar
    37    15    10   ar
    38    16    19    1
    39    16    20    1
    40    26    28    1
