@<TRIPOS>MOLECULE
*****
 41 46 0 0 0
SMALL
GASTEIGER

@<TRIPOS>ATOM
      1 N         139.7223  138.0808  159.6298 N.pl3   1  UNL1       -0.2665
      2 H         139.0254  137.5550  159.1748 H       1  UNL1        0.1565
      3 C         140.8871  138.6155  158.8505 C.ar    1  UNL1        0.2231
      4 N         141.2818  137.9712  157.5546 N.ar    1  UNL1       -0.2119
      5 C         142.4466  138.5058  156.7753 C.ar    1  UNL1        0.1048
      6 C         143.2168  139.6848  157.2918 C.ar    1  UNL1        0.0549
      7 C         144.4013  140.4266  156.7471 C.ar    1  UNL1        0.0233
      8 C         145.2161  140.2404  155.5016 C.ar    1  UNL1        0.0223
      9 C         146.3684  141.1570  155.2153 C.ar    1  UNL1        0.0990
     10 N         146.7058  142.2598  156.1744 N.ar    1  UNL1       -0.2408
     11 C         145.8910  142.4461  157.4199 C.ar    1  UNL1        0.1160
     12 C         144.7387  141.5295  157.7062 C.ar    1  UNL1        0.0804
     13 N         143.7627  141.4692  158.8437 N.ar    1  UNL1       -0.3132
     14 C         142.8222  140.3291  158.5876 C.ar    1  UNL1        0.1482
     15 N         141.6573  139.7944  159.3669 N.ar    1  UNL1       -0.1961
     16 C         143.7327  142.3877  160.0292 C.3     1  UNL1        0.0869
     17 C         142.6040  143.3615  160.1951 C.3     1  UNL1        0.0226
     18 C         142.5740  144.2801  161.3806 C.3     1  UNL1        0.0019
     19 C         143.6727  144.2248  162.4003 C.3     1  UNL1        0.0001
     20 C         143.6426  145.1433  163.5857 C.3     1  UNL1        0.0000
     21 C         144.8014  143.2509  162.2344 C.3     1  UNL1        0.0019
     22 C         144.8315  142.3324  161.0489 C.3     1  UNL1        0.0226
     23 C         139.4136  138.8804  164.0474 C.ar    1  UNL1        0.1536
     24 C         138.5589  139.6499  163.0844 C.ar    1  UNL1        0.0390
     25 C         138.6618  139.3833  161.6118 C.ar    1  UNL1        0.0392
     26 C         139.6194  138.3473  161.1023 C.ar    1  UNL1        0.1562
     27 N         140.4741  137.5778  162.0653 N.ar    1  UNL1       -0.1315
     28 N         140.3712  137.8443  163.5379 N.ar    1  UNL1       -0.1317
     29 C         139.1048  139.6801  168.4649 C.3     1  UNL1        0.0610
     30 C         140.3614  140.0315  167.7252 C.3     1  UNL1        0.0375
     31 C         140.4643  139.7649  166.2527 C.3     1  UNL1        0.0936
     32 N         139.3106  139.1469  165.5199 N.pl3   1  UNL1       -0.2918
     33 C         138.0539  138.7955  166.2597 C.3     1  UNL1        0.0936
     34 C         137.9510  139.0621  167.7322 C.3     1  UNL1        0.0375
     35 N         139.0019  139.9466  169.9375 N.3     1  UNL1       -0.2706
     36 C         137.6634  139.9140  170.6139 C.3     1  UNL1        0.0897
     37 C         140.2375  140.2458  170.7337 C.3     1  UNL1        0.1016
     38 C         139.9251  142.7846  170.2782 C.3     1  UNL1        0.0332
     39 C         140.6554  141.6680  170.9637 C.3     1  UNL1        0.1265
     40 O         141.8036  141.9734  171.8792 O.3     1  UNL1       -0.3830
     41 H         142.1611  141.1457  172.2368 H       1  UNL1        0.2104
@<TRIPOS>BOND
     1    39    38    1
     2    39    40    1
     3    39    37    1
     4    37    35    1
     5    35    36    1
     6    35    29    1
     7    29    30    1
     8    30    31    1
     9    31    32    1
    10    32    23    1
    11    23    24   ar
    12    24    25   ar
    13    25    26   ar
    14    26     1    1
    15     1     3    1
    16     3     4   ar
    17     4     5   ar
    18     5     6   ar
    19     6     7   ar
    20     7     8   ar
    21     8     9   ar
    22     9    10   ar
    23    10    11   ar
    24    11    12   ar
    25    12    13   ar
    26    16    13    1
    27    16    17    1
    28    17    18    1
    29    18    19    1
    30    19    20    1
    31    19    21    1
    32    21    22    1
    33    13    14   ar
    34    14    15   ar
    35    26    27   ar
    36    27    28   ar
    37    32    33    1
    38    33    34    1
    39    34    29    1
    40    28    23   ar
    41    15     3   ar
    42    14     6   ar
    43    12     7   ar
    44    22    16    1
    45    40    41    1
    46     1     2    1
@<TRIPOS>MOLECULE
*****
 41 46 0 0 0
SMALL
GASTEIGER

@<TRIPOS>ATOM
      1 N         138.2354  138.5915  163.5420 N.pl3   1  UNL1       -0.2665
      2 H         137.9003  137.6707  163.4469 H       1  UNL1        0.1565
      3 C         138.6427  139.1058  164.8909 C.ar    1  UNL1        0.2231
      4 N         138.0593  138.4990  166.1325 N.ar    1  UNL1       -0.2119
      5 C         138.4666  139.0133  167.4814 C.ar    1  UNL1        0.1048
      6 C         139.4573  140.1345  167.5888 C.ar    1  UNL1        0.0549
      7 C         140.0446  140.8450  168.7721 C.ar    1  UNL1        0.0233
      8 C         139.8399  140.6747  170.2482 C.ar    1  UNL1        0.0223
      9 C         140.5816  141.5504  171.2142 C.ar    1  UNL1        0.0990
     10 N         141.5280  142.5964  170.7039 N.ar    1  UNL1       -0.2408
     11 C         141.7326  142.7667  169.2278 C.ar    1  UNL1        0.1160
     12 C         140.9909  141.8910  168.2619 C.ar    1  UNL1        0.0804
     13 N         140.9885  141.8270  166.7632 N.ar    1  UNL1       -0.3132
     14 C         140.0406  140.7414  166.3472 C.ar    1  UNL1        0.1482
     15 N         139.6333  140.2270  164.9983 N.ar    1  UNL1       -0.1961
     16 C         141.7927  142.6959  165.8423 C.3     1  UNL1        0.0869
     17 C         141.0990  143.6397  164.9054 C.3     1  UNL1        0.0226
     18 C         141.9032  144.5087  163.9844 C.3     1  UNL1        0.0019
     19 C         143.4012  144.4339  164.0004 C.3     1  UNL1        0.0001
     20 C         144.2054  145.3029  163.0795 C.3     1  UNL1        0.0000
     21 C         144.0950  143.4901  164.9374 C.3     1  UNL1        0.0019
     22 C         143.2908  142.6211  165.8583 C.3     1  UNL1        0.0226
     23 C         138.5453  141.2574  159.9300 C.ar    1  UNL1        0.1536
     24 C         139.1948  139.9054  159.9221 C.ar    1  UNL1        0.0390
     25 C         139.0915  139.0167  161.1262 C.ar    1  UNL1        0.0392
     26 C         138.3386  139.4801  162.3380 C.ar    1  UNL1        0.1562
     27 N         137.6892  140.8322  162.3459 N.ar    1  UNL1       -0.1315
     28 N         137.7925  141.7209  161.1418 N.ar    1  UNL1       -0.1317
     29 C         138.8552  143.9232  156.3179 C.3     1  UNL1        0.0610
     30 C         137.9457  142.7307  156.2941 C.3     1  UNL1        0.0375
     31 C         137.8424  141.8421  157.4981 C.3     1  UNL1        0.0936
     32 N         138.6486  142.1460  158.7259 N.pl3   1  UNL1       -0.2918
     33 C         139.5581  143.3387  158.7498 C.3     1  UNL1        0.0936
     34 C         139.6613  144.2272  157.5458 C.3     1  UNL1        0.0375
     35 N         138.9585  144.8118  155.1138 N.3     1  UNL1       -0.2706
     36 C         139.7884  144.3885  153.9382 C.3     1  UNL1        0.0897
     37 C         138.2317  146.1237  155.0853 C.3     1  UNL1        0.1016
     38 C         140.0626  147.9011  154.5965 C.3     1  UNL1        0.0332
     39 C         138.9490  147.3867  155.4599 C.3     1  UNL1        0.1265
     40 O         138.5527  148.1354  156.6978 O.3     1  UNL1       -0.3830
     41 H         137.8228  147.6711  157.1367 H       1  UNL1        0.2104
@<TRIPOS>BOND
     1    39    38    1
     2    39    40    1
     3    39    37    1
     4    37    35    1
     5    35    36    1
     6    35    29    1
     7    29    30    1
     8    30    31    1
     9    31    32    1
    10    32    23    1
    11    23    24   ar
    12    24    25   ar
    13    25    26   ar
    14    26     1    1
    15     1     3    1
    16     3     4   ar
    17     4     5   ar
    18     5     6   ar
    19     6     7   ar
    20     7     8   ar
    21     8     9   ar
    22     9    10   ar
    23    10    11   ar
    24    11    12   ar
    25    12    13   ar
    26    16    13    1
    27    16    17    1
    28    17    18    1
    29    18    19    1
    30    19    20    1
    31    19    21    1
    32    21    22    1
    33    13    14   ar
    34    14    15   ar
    35    26    27   ar
    36    27    28   ar
    37    32    33    1
    38    33    34    1
    39    34    29    1
    40    28    23   ar
    41    15     3   ar
    42    14     6   ar
    43    12     7   ar
    44    22    16    1
    45    40    41    1
    46     1     2    1
@<TRIPOS>MOLECULE
*****
 41 46 0 0 0
SMALL
GASTEIGER

@<TRIPOS>ATOM
      1 N         143.5362  137.4866  160.7062 N.pl3   1  UNL1       -0.2665
      2 H         144.2586  136.8386  160.5404 H       1  UNL1        0.1565
      3 C         142.5738  137.8339  159.6093 C.ar    1  UNL1        0.2231
      4 N         142.6588  137.1316  158.2867 N.ar    1  UNL1       -0.2119
      5 C         141.6963  137.4789  157.1898 C.ar    1  UNL1        0.1048
      6 C         140.6489  138.5286  157.4156 C.ar    1  UNL1        0.0549
      7 C         139.5716  139.0786  156.5286 C.ar    1  UNL1        0.0233
      8 C         139.1773  138.7651  155.1157 C.ar    1  UNL1        0.0223
      9 C         138.0321  139.4938  154.4774 C.ar    1  UNL1        0.0990
     10 N         137.2813  140.5361  155.2518 N.ar    1  UNL1       -0.2408
     11 C         137.6755  140.8497  156.6647 C.ar    1  UNL1        0.1160
     12 C         138.8207  140.1209  157.3030 C.ar    1  UNL1        0.0804
     13 N         139.4340  140.2150  158.6687 N.ar    1  UNL1       -0.3132
     14 C         140.5639  139.2309  158.7383 C.ar    1  UNL1        0.1482
     15 N         141.5263  138.8836  159.8352 N.ar    1  UNL1       -0.1961
     16 C         138.9945  141.1323  159.7712 C.3     1  UNL1        0.0869
     17 C         139.4371  142.5654  159.7758 C.3     1  UNL1        0.0226
     18 C         138.9976  143.4826  160.8783 C.3     1  UNL1        0.0019
     19 C         138.1155  142.9667  161.9763 C.3     1  UNL1        0.0001
     20 C         137.6760  143.8839  163.0789 C.3     1  UNL1        0.0000
     21 C         137.6728  141.5335  161.9718 C.3     1  UNL1        0.0019
     22 C         138.1123  140.6163  160.8693 C.3     1  UNL1        0.0226
     23 C         143.1214  139.4065  164.7549 C.ar    1  UNL1        0.1536
     24 C         144.2539  139.7970  163.8521 C.ar    1  UNL1        0.0390
     25 C         144.3922  139.1570  162.5025 C.ar    1  UNL1        0.0392
     26 C         143.3979  138.1265  162.0557 C.ar    1  UNL1        0.1562
     27 N         142.2655  137.7360  162.9585 N.ar    1  UNL1       -0.1315
     28 N         142.1272  138.3760  164.3081 N.ar    1  UNL1       -0.1317
     29 C         142.7068  141.3265  168.8035 C.3     1  UNL1        0.0610
     30 C         142.9054  142.1794  167.5858 C.3     1  UNL1        0.0375
     31 C         143.0436  141.5394  166.2362 C.3     1  UNL1        0.0936
     32 N         142.9832  140.0465  166.1045 N.pl3   1  UNL1       -0.2918
     33 C         142.7846  139.1935  167.3223 C.3     1  UNL1        0.0936
     34 C         142.6464  139.8335  168.6717 C.3     1  UNL1        0.0375
     35 N         142.5686  141.9666  170.1531 N.3     1  UNL1       -0.2706
     36 C         143.5145  143.0544  170.5677 C.3     1  UNL1        0.0897
     37 C         141.4845  141.5188  171.0880 C.3     1  UNL1        0.1016
     38 C         139.2194  140.8571  170.0009 C.3     1  UNL1        0.0332
     39 C         140.0507  141.8334  170.7794 C.3     1  UNL1        0.1265
     40 O         139.4481  143.1242  171.2492 O.3     1  UNL1       -0.3830
     41 H         140.1156  143.6353  171.7332 H       1  UNL1        0.2104
@<TRIPOS>BOND
     1    39    38    1
     2    39    40    1
     3    39    37    1
     4    37    35    1
     5    35    36    1
     6    35    29    1
     7    29    30    1
     8    30    31    1
     9    31    32    1
    10    32    23    1
    11    23    24   ar
    12    24    25   ar
    13    25    26   ar
    14    26     1    1
    15     1     3    1
    16     3     4   ar
    17     4     5   ar
    18     5     6   ar
    19     6     7   ar
    20     7     8   ar
    21     8     9   ar
    22     9    10   ar
    23    10    11   ar
    24    11    12   ar
    25    12    13   ar
    26    16    13    1
    27    16    17    1
    28    17    18    1
    29    18    19    1
    30    19    20    1
    31    19    21    1
    32    21    22    1
    33    13    14   ar
    34    14    15   ar
    35    26    27   ar
    36    27    28   ar
    37    32    33    1
    38    33    34    1
    39    34    29    1
    40    28    23   ar
    41    15     3   ar
    42    14     6   ar
    43    12     7   ar
    44    22    16    1
    45    40    41    1
    46     1     2    1
@<TRIPOS>MOLECULE
*****
 41 46 0 0 0
SMALL
GASTEIGER

@<TRIPOS>ATOM
      1 N         138.9311  137.7825  162.9426 N.pl3   1  UNL1       -0.2665
      2 H         138.2712  137.0719  162.7728 H       1  UNL1        0.1565
      3 C         139.0283  138.4063  164.3033 C.ar    1  UNL1        0.2231
      4 N         138.3091  137.7875  165.4651 N.ar    1  UNL1       -0.2119
      5 C         138.4063  138.4112  166.8259 C.ar    1  UNL1        0.1048
      6 C         139.2227  139.6538  167.0247 C.ar    1  UNL1        0.0549
      7 C         139.5021  140.4873  168.2401 C.ar    1  UNL1        0.0233
      8 C         139.0596  140.3602  169.6677 C.ar    1  UNL1        0.0223
      9 C         139.5090  141.3671  170.6846 C.ar    1  UNL1        0.0990
     10 N         140.4009  142.5011  170.2739 N.ar    1  UNL1       -0.2408
     11 C         140.8434  142.6282  168.8464 C.ar    1  UNL1        0.1160
     12 C         140.3940  141.6213  167.8295 C.ar    1  UNL1        0.0804
     13 N         140.6658  141.4885  166.3603 N.ar    1  UNL1       -0.3132
     14 C         139.9419  140.2726  165.8629 C.ar    1  UNL1        0.1482
     15 N         139.8447  139.6488  164.5022 N.ar    1  UNL1       -0.1961
     16 C         141.5128  142.4100  165.5336 C.3     1  UNL1        0.0869
     17 C         143.0083  142.3155  165.5996 C.3     1  UNL1        0.0226
     18 C         143.8553  143.2370  164.7729 C.3     1  UNL1        0.0019
     19 C         143.2068  144.2531  163.8802 C.3     1  UNL1        0.0001
     20 C         144.0538  145.1746  163.0535 C.3     1  UNL1        0.0000
     21 C         141.7112  144.3477  163.8142 C.3     1  UNL1        0.0019
     22 C         140.8642  143.4262  164.6408 C.3     1  UNL1        0.0226
     23 C         141.6558  139.1596  159.6366 C.ar    1  UNL1        0.1536
     24 C         142.1889  138.2853  160.7326 C.ar    1  UNL1        0.0390
     25 C         141.2806  137.8262  161.8347 C.ar    1  UNL1        0.0392
     26 C         139.8392  138.2415  161.8406 C.ar    1  UNL1        0.1562
     27 N         139.3061  139.1159  160.7446 N.ar    1  UNL1       -0.1315
     28 N         140.2144  139.5749  159.6425 N.ar    1  UNL1       -0.1317
     29 C         144.3805  140.5364  156.3306 C.3     1  UNL1        0.0610
     30 C         143.2915  139.5464  156.0415 C.3     1  UNL1        0.0375
     31 C         142.3832  139.0874  157.1435 C.3     1  UNL1        0.0936
     32 N         142.5640  139.6185  158.5346 N.pl3   1  UNL1       -0.2918
     33 C         143.6531  140.6087  158.8237 C.3     1  UNL1        0.0936
     34 C         144.5613  141.0676  157.7217 C.3     1  UNL1        0.0375
     35 N         145.2888  140.9954  155.2285 N.3     1  UNL1       -0.2706
     36 C         145.5318  140.1127  154.0404 C.3     1  UNL1        0.0897
     37 C         145.9540  142.3371  155.3147 C.3     1  UNL1        0.1016
     38 C         148.4870  141.8432  155.6149 C.3     1  UNL1        0.0332
     39 C         147.2247  142.4954  156.0959 C.3     1  UNL1        0.1265
     40 O         147.2331  143.3060  157.3580 O.3     1  UNL1       -0.3830
     41 H         146.3433  143.6546  157.5243 H       1  UNL1        0.2104
@<TRIPOS>BOND
     1    39    38    1
     2    39    40    1
     3    39    37    1
     4    37    35    1
     5    35    36    1
     6    35    29    1
     7    29    30    1
     8    30    31    1
     9    31    32    1
    10    32    23    1
    11    23    24   ar
    12    24    25   ar
    13    25    26   ar
    14    26     1    1
    15     1     3    1
    16     3     4   ar
    17     4     5   ar
    18     5     6   ar
    19     6     7   ar
    20     7     8   ar
    21     8     9   ar
    22     9    10   ar
    23    10    11   ar
    24    11    12   ar
    25    12    13   ar
    26    16    13    1
    27    16    17    1
    28    17    18    1
    29    18    19    1
    30    19    20    1
    31    19    21    1
    32    21    22    1
    33    13    14   ar
    34    14    15   ar
    35    26    27   ar
    36    27    28   ar
    37    32    33    1
    38    33    34    1
    39    34    29    1
    40    28    23   ar
    41    15     3   ar
    42    14     6   ar
    43    12     7   ar
    44    22    16    1
    45    40    41    1
    46     1     2    1
@<TRIPOS>MOLECULE
*****
 41 46 0 0 0
SMALL
GASTEIGER

@<TRIPOS>ATOM
      1 N         137.8437  139.7713  159.1962 N.pl3   1  UNL1       -0.2665
      2 H         136.9308  139.7262  158.8302 H       1  UNL1        0.1565
      3 C         139.0229  139.7964  158.2695 C.ar    1  UNL1        0.2231
      4 N         138.8401  139.4816  156.8143 N.ar    1  UNL1       -0.2119
      5 C         140.0194  139.5067  155.8876 C.ar    1  UNL1        0.1048
      6 C         141.3814  139.8465  156.4160 C.ar    1  UNL1        0.0549
      7 C         142.7203  139.9496  155.7476 C.ar    1  UNL1        0.0233
      8 C         143.1500  139.7477  154.3248 C.ar    1  UNL1        0.0223
      9 C         144.5901  139.9244  153.9440 C.ar    1  UNL1        0.0990
     10 N         145.6004  140.3029  154.9861 N.ar    1  UNL1       -0.2408
     11 C         145.1707  140.5048  156.4090 C.ar    1  UNL1        0.1160
     12 C         143.7306  140.3282  156.7897 C.ar    1  UNL1        0.0804
     13 N         143.0161  140.4590  158.1021 N.ar    1  UNL1       -0.3132
     14 C         141.5642  140.1613  157.8712 C.ar    1  UNL1        0.1482
     15 N         140.3850  140.1363  158.7979 N.ar    1  UNL1       -0.1961
     16 C         143.6434  140.8235  159.4150 C.3     1  UNL1        0.0869
     17 C         143.7467  139.8002  160.5067 C.3     1  UNL1        0.0226
     18 C         144.3740  140.1647  161.8196 C.3     1  UNL1        0.0019
     19 C         144.8981  141.5526  162.0407 C.3     1  UNL1        0.0001
     20 C         145.5254  141.9171  163.3536 C.3     1  UNL1        0.0000
     21 C         144.7949  142.5760  160.9490 C.3     1  UNL1        0.0019
     22 C         144.1676  142.2115  159.6361 C.3     1  UNL1        0.0226
     23 C         138.4785  139.9022  163.6492 C.ar    1  UNL1        0.1536
     24 C         138.5863  138.5991  162.9143 C.ar    1  UNL1        0.0390
     25 C         138.3746  138.5554  161.4298 C.ar    1  UNL1        0.0392
     26 C         138.0553  139.8150  160.6805 C.ar    1  UNL1        0.1562
     27 N         137.9475  141.1181  161.4154 N.ar    1  UNL1       -0.1315
     28 N         138.1591  141.1618  162.8998 N.ar    1  UNL1       -0.1317
     29 C         139.1133  140.0329  168.1022 C.3     1  UNL1        0.0610
     30 C         138.1356  139.0604  167.5123 C.3     1  UNL1        0.0375
     31 C         137.9240  139.0168  166.0280 C.3     1  UNL1        0.0936
     32 N         138.6901  139.9458  165.1336 N.pl3   1  UNL1       -0.2918
     33 C         139.6679  140.9184  165.7236 C.3     1  UNL1        0.0936
     34 C         139.8795  140.9619  167.2079 C.3     1  UNL1        0.0375
     35 N         139.3249  140.0765  169.5867 N.3     1  UNL1       -0.2706
     36 C         138.1849  139.7811  170.5157 C.3     1  UNL1        0.0897
     37 C         140.6765  140.4154  170.1420 C.3     1  UNL1        0.1016
     38 C         141.5952  142.8311  169.8765 C.3     1  UNL1        0.0332
     39 C         140.9321  141.7782  170.7142 C.3     1  UNL1        0.1265
     40 O         140.5245  142.0881  172.1241 O.3     1  UNL1       -0.3830
     41 H         140.1133  141.3045  172.5214 H       1  UNL1        0.2104
@<TRIPOS>BOND
     1    39    38    1
     2    39    40    1
     3    39    37    1
     4    37    35    1
     5    35    36    1
     6    35    29    1
     7    29    30    1
     8    30    31    1
     9    31    32    1
    10    32    23    1
    11    23    24   ar
    12    24    25   ar
    13    25    26   ar
    14    26     1    1
    15     1     3    1
    16     3     4   ar
    17     4     5   ar
    18     5     6   ar
    19     6     7   ar
    20     7     8   ar
    21     8     9   ar
    22     9    10   ar
    23    10    11   ar
    24    11    12   ar
    25    12    13   ar
    26    16    13    1
    27    16    17    1
    28    17    18    1
    29    18    19    1
    30    19    20    1
    31    19    21    1
    32    21    22    1
    33    13    14   ar
    34    14    15   ar
    35    26    27   ar
    36    27    28   ar
    37    32    33    1
    38    33    34    1
    39    34    29    1
    40    28    23   ar
    41    15     3   ar
    42    14     6   ar
    43    12     7   ar
    44    22    16    1
    45    40    41    1
    46     1     2    1
@<TRIPOS>MOLECULE
*****
 41 46 0 0 0
SMALL
GASTEIGER

@<TRIPOS>ATOM
      1 N         143.7846  137.9632  160.4474 N.pl3   1  UNL1       -0.2665
      2 H         144.7157  137.6471  160.3983 H       1  UNL1        0.1565
      3 C         142.9642  138.0773  159.1968 C.ar    1  UNL1        0.2231
      4 N         142.2407  139.3545  158.8883 N.ar    1  UNL1       -0.2119
      5 C         141.4203  139.4686  157.6377 C.ar    1  UNL1        0.1048
      6 C         141.3235  138.3054  156.6956 C.ar    1  UNL1        0.0549
      7 C         140.5963  138.1240  155.3962 C.ar    1  UNL1        0.0233
      8 C         139.7199  139.0445  154.5996 C.ar    1  UNL1        0.0223
      9 C         139.1177  138.5756  153.3083 C.ar    1  UNL1        0.0990
     10 N         139.3918  137.1862  152.8137 N.ar    1  UNL1       -0.2408
     11 C         140.2681  136.2658  153.6104 C.ar    1  UNL1        0.1160
     12 C         140.8704  136.7347  154.9017 C.ar    1  UNL1        0.0804
     13 N         141.7670  136.0574  155.8954 N.ar    1  UNL1       -0.3132
     14 C         142.0470  137.0282  157.0041 C.ar    1  UNL1        0.1482
     15 N         142.8674  136.9141  158.2547 N.ar    1  UNL1       -0.1961
     16 C         142.2915  134.6555  155.7975 C.3     1  UNL1        0.0869
     17 C         143.7312  134.3701  156.1063 C.3     1  UNL1        0.0226
     18 C         144.2557  132.9682  156.0084 C.3     1  UNL1        0.0019
     19 C         143.3404  131.8516  155.6017 C.3     1  UNL1        0.0001
     20 C         143.8648  130.4497  155.5038 C.3     1  UNL1        0.0000
     21 C         141.9005  132.1370  155.2928 C.3     1  UNL1        0.0019
     22 C         141.3760  133.5389  155.3907 C.3     1  UNL1        0.0226
     23 C         141.9898  139.0662  164.4238 C.ar    1  UNL1        0.1536
     24 C         141.2737  138.1096  163.5172 C.ar    1  UNL1        0.0390
     25 C         141.8720  137.7419  162.1917 C.ar    1  UNL1        0.0392
     26 C         143.1864  138.3309  161.7728 C.ar    1  UNL1        0.1562
     27 N         143.9025  139.2875  162.6795 N.ar    1  UNL1       -0.1315
     28 N         143.3042  139.6552  164.0050 N.ar    1  UNL1       -0.1317
     29 C         140.1950  140.1692  168.4002 C.3     1  UNL1        0.0610
     30 C         141.6844  140.0757  168.2497 C.3     1  UNL1        0.0375
     31 C         142.2827  139.7081  166.9243 C.3     1  UNL1        0.0936
     32 N         141.3915  139.4339  165.7493 N.pl3   1  UNL1       -0.2918
     33 C         139.9020  139.5274  165.8998 C.3     1  UNL1        0.0936
     34 C         139.3038  139.8950  167.2253 C.3     1  UNL1        0.0375
     35 N         139.5967  140.5368  169.7258 N.3     1  UNL1       -0.2706
     36 C         138.2927  139.9317  170.1538 C.3     1  UNL1        0.0897
     37 C         140.3026  141.5097  170.6232 C.3     1  UNL1        0.1016
     38 C         140.5517  143.9489  169.7640 C.3     1  UNL1        0.0332
     39 C         139.8763  142.9475  170.6534 C.3     1  UNL1        0.1265
     40 O         138.7746  143.3840  171.5731 O.3     1  UNL1       -0.3830
     41 H         138.4495  142.6195  172.0738 H       1  UNL1        0.2104
@<TRIPOS>BOND
     1    39    38    1
     2    39    40    1
     3    39    37    1
     4    37    35    1
     5    35    36    1
     6    35    29    1
     7    29    30    1
     8    30    31    1
     9    31    32    1
    10    32    23    1
    11    23    24   ar
    12    24    25   ar
    13    25    26   ar
    14    26     1    1
    15     1     3    1
    16     3     4   ar
    17     4     5   ar
    18     5     6   ar
    19     6     7   ar
    20     7     8   ar
    21     8     9   ar
    22     9    10   ar
    23    10    11   ar
    24    11    12   ar
    25    12    13   ar
    26    16    13    1
    27    16    17    1
    28    17    18    1
    29    18    19    1
    30    19    20    1
    31    19    21    1
    32    21    22    1
    33    13    14   ar
    34    14    15   ar
    35    26    27   ar
    36    27    28   ar
    37    32    33    1
    38    33    34    1
    39    34    29    1
    40    28    23   ar
    41    15     3   ar
    42    14     6   ar
    43    12     7   ar
    44    22    16    1
    45    40    41    1
    46     1     2    1
@<TRIPOS>MOLECULE
*****
 41 46 0 0 0
SMALL
GASTEIGER

@<TRIPOS>ATOM
      1 N         144.2670  139.0078  160.0583 N.pl3   1  UNL1       -0.2665
      2 H         145.1859  138.8009  159.7720 H       1  UNL1        0.1565
      3 C         143.1458  138.9751  159.0623 C.ar    1  UNL1        0.2231
      4 N         142.2177  140.1471  158.9390 N.ar    1  UNL1       -0.2119
      5 C         141.0965  140.1144  157.9430 C.ar    1  UNL1        0.1048
      6 C         140.9035  138.9097  157.0703 C.ar    1  UNL1        0.0549
      7 C         139.8950  138.5925  156.0062 C.ar    1  UNL1        0.0233
      8 C         138.7386  139.3726  155.4548 C.ar    1  UNL1        0.0223
      9 C         137.8870  138.7846  154.3689 C.ar    1  UNL1        0.0990
     10 N         138.1919  137.4166  153.8345 N.ar    1  UNL1       -0.2408
     11 C         139.3483  136.6366  154.3859 C.ar    1  UNL1        0.1160
     12 C         140.1999  137.2245  155.4717 C.ar    1  UNL1        0.0804
     13 N         141.3968  136.6963  156.2056 N.ar    1  UNL1       -0.3132
     14 C         141.8316  137.7378  157.1936 C.ar    1  UNL1        0.1482
     15 N         142.9528  137.7705  158.1896 N.ar    1  UNL1       -0.1961
     16 C         142.0450  135.3610  155.9895 C.3     1  UNL1        0.0869
     17 C         143.4241  135.1021  156.5193 C.3     1  UNL1        0.0226
     18 C         144.0723  133.7668  156.3031 C.3     1  UNL1        0.0019
     19 C         143.3413  132.6902  155.5570 C.3     1  UNL1        0.0001
     20 C         143.9895  131.3549  155.3409 C.3     1  UNL1        0.0000
     21 C         141.9621  132.9490  155.0272 C.3     1  UNL1        0.0019
     22 C         141.3139  134.2844  155.2433 C.3     1  UNL1        0.0226
     23 C         143.4298  140.0518  164.3547 C.ar    1  UNL1        0.1536
     24 C         142.7909  138.8427  163.7385 C.ar    1  UNL1        0.0390
     25 C         143.0699  138.4947  162.3063 C.ar    1  UNL1        0.0392
     26 C         143.9880  139.3558  161.4904 C.ar    1  UNL1        0.1562
     27 N         144.6269  140.5649  162.1066 N.ar    1  UNL1       -0.1315
     28 N         144.3479  140.9129  163.5388 N.ar    1  UNL1       -0.1317
     29 C         142.5926  141.0955  168.6511 C.3     1  UNL1        0.0610
     30 C         142.6157  139.6593  168.2190 C.3     1  UNL1        0.0375
     31 C         142.8948  139.3114  166.7869 C.3     1  UNL1        0.0936
     32 N         143.1508  140.3997  165.7869 N.pl3   1  UNL1       -0.2918
     33 C         143.1277  141.8359  166.2190 C.3     1  UNL1        0.0936
     34 C         142.8486  142.1838  167.6511 C.3     1  UNL1        0.0375
     35 N         142.3135  141.4434  170.0834 N.3     1  UNL1       -0.2706
     36 C         142.6554  142.8079  170.6041 C.3     1  UNL1        0.0897
     37 C         141.6926  140.4266  170.9948 C.3     1  UNL1        0.1016
     38 C         139.3599  140.9220  169.9636 C.3     1  UNL1        0.0332
     39 C         140.2248  140.1322  170.9007 C.3     1  UNL1        0.1265
     40 O         139.6219  139.0478  171.7438 O.3     1  UNL1       -0.3830
     41 H         140.3130  138.6398  172.2885 H       1  UNL1        0.2104
@<TRIPOS>BOND
     1    39    38    1
     2    39    40    1
     3    39    37    1
     4    37    35    1
     5    35    36    1
     6    35    29    1
     7    29    30    1
     8    30    31    1
     9    31    32    1
    10    32    23    1
    11    23    24   ar
    12    24    25   ar
    13    25    26   ar
    14    26     1    1
    15     1     3    1
    16     3     4   ar
    17     4     5   ar
    18     5     6   ar
    19     6     7   ar
    20     7     8   ar
    21     8     9   ar
    22     9    10   ar
    23    10    11   ar
    24    11    12   ar
    25    12    13   ar
    26    16    13    1
    27    16    17    1
    28    17    18    1
    29    18    19    1
    30    19    20    1
    31    19    21    1
    32    21    22    1
    33    13    14   ar
    34    14    15   ar
    35    26    27   ar
    36    27    28   ar
    37    32    33    1
    38    33    34    1
    39    34    29    1
    40    28    23   ar
    41    15     3   ar
    42    14     6   ar
    43    12     7   ar
    44    22    16    1
    45    40    41    1
    46     1     2    1
@<TRIPOS>MOLECULE
*****
 41 46 0 0 0
SMALL
GASTEIGER

@<TRIPOS>ATOM
      1 N         143.0616  137.2555  160.4915 N.pl3   1  UNL1       -0.2665
      2 H         143.5554  136.4172  160.3413 H       1  UNL1        0.1565
      3 C         142.6037  138.0761  159.3223 C.ar    1  UNL1        0.2231
      4 N         142.9807  137.6710  157.9281 N.ar    1  UNL1       -0.2119
      5 C         142.5228  138.4915  156.7589 C.ar    1  UNL1        0.1048
      6 C         141.6878  139.7172  156.9839 C.ar    1  UNL1        0.0549
      7 C         141.0945  140.7155  156.0345 C.ar    1  UNL1        0.0233
      8 C         141.1353  140.8259  154.5392 C.ar    1  UNL1        0.0223
      9 C         140.4324  141.9585  153.8513 C.ar    1  UNL1        0.0990
     10 N         139.6886  142.9806  154.6588 N.ar    1  UNL1       -0.2408
     11 C         139.6478  142.8702  156.1542 C.ar    1  UNL1        0.1160
     12 C         140.3507  141.7377  156.8420 C.ar    1  UNL1        0.0804
     13 N         140.4844  141.3710  158.2904 N.ar    1  UNL1       -0.3132
     14 C         141.3108  140.1223  158.3780 C.ar    1  UNL1        0.1482
     15 N         141.7688  139.3017  159.5473 N.ar    1  UNL1       -0.1961
     16 C         139.8952  142.1214  159.4478 C.3     1  UNL1        0.0869
     17 C         140.5100  143.4146  159.8944 C.3     1  UNL1        0.0226
     18 C         139.9208  144.1650  161.0519 C.3     1  UNL1        0.0019
     19 C         138.7167  143.6222  161.7628 C.3     1  UNL1        0.0001
     20 C         138.1274  144.3726  162.9203 C.3     1  UNL1        0.0000
     21 C         138.1018  142.3289  161.3163 C.3     1  UNL1        0.0019
     22 C         138.6910  141.5785  160.1588 C.3     1  UNL1        0.0226
     23 C         142.1783  138.6261  164.6857 C.ar    1  UNL1        0.1536
     24 C         143.4430  139.0597  164.0057 C.ar    1  UNL1        0.0390
     25 C         143.7374  138.6029  162.6075 C.ar    1  UNL1        0.0392
     26 C         142.7671  137.7123  161.8895 C.ar    1  UNL1        0.1562
     27 N         141.5025  137.2787  162.5695 N.ar    1  UNL1       -0.1315
     28 N         141.2080  137.7355  163.9677 N.ar    1  UNL1       -0.1317
     29 C         141.2950  139.9967  168.8798 C.3     1  UNL1        0.0610
     30 C         140.2277  140.0649  167.8281 C.3     1  UNL1        0.0375
     31 C         140.5221  139.6080  166.4301 C.3     1  UNL1        0.0936
     32 N         141.8839  139.0829  166.0838 N.pl3   1  UNL1       -0.2918
     33 C         142.9512  139.0147  167.1355 C.3     1  UNL1        0.0936
     34 C         142.6567  139.4716  168.5335 C.3     1  UNL1        0.0375
     35 N         141.0005  140.4536  170.2779 N.3     1  UNL1       -0.2706
     36 C         139.7460  140.0029  170.9657 C.3     1  UNL1        0.0897
     37 C         141.9606  141.3611  170.9882 C.3     1  UNL1        0.1016
     38 C         141.0044  143.4456  169.7673 C.3     1  UNL1        0.0332
     39 C         142.0983  142.7916  170.5583 C.3     1  UNL1        0.1265
     40 O         143.3299  143.5680  170.9193 O.3     1  UNL1       -0.3830
     41 H         143.9319  143.0016  171.4269 H       1  UNL1        0.2104
@<TRIPOS>BOND
     1    39    38    1
     2    39    40    1
     3    39    37    1
     4    37    35    1
     5    35    36    1
     6    35    29    1
     7    29    30    1
     8    30    31    1
     9    31    32    1
    10    32    23    1
    11    23    24   ar
    12    24    25   ar
    13    25    26   ar
    14    26     1    1
    15     1     3    1
    16     3     4   ar
    17     4     5   ar
    18     5     6   ar
    19     6     7   ar
    20     7     8   ar
    21     8     9   ar
    22     9    10   ar
    23    10    11   ar
    24    11    12   ar
    25    12    13   ar
    26    16    13    1
    27    16    17    1
    28    17    18    1
    29    18    19    1
    30    19    20    1
    31    19    21    1
    32    21    22    1
    33    13    14   ar
    34    14    15   ar
    35    26    27   ar
    36    27    28   ar
    37    32    33    1
    38    33    34    1
    39    34    29    1
    40    28    23   ar
    41    15     3   ar
    42    14     6   ar
    43    12     7   ar
    44    22    16    1
    45    40    41    1
    46     1     2    1
@<TRIPOS>MOLECULE
*****
 41 46 0 0 0
SMALL
GASTEIGER

@<TRIPOS>ATOM
      1 N         145.0886  143.0798  160.2893 N.pl3   1  UNL1       -0.2665
      2 H         145.7403  143.7871  160.0789 H       1  UNL1        0.1565
      3 C         144.6752  142.1015  159.2300 C.ar    1  UNL1        0.2231
      4 N         145.3417  142.1247  157.8864 N.ar    1  UNL1       -0.2119
      5 C         144.9283  141.1464  156.8271 C.ar    1  UNL1        0.1048
      6 C         143.8483  140.1450  157.1113 C.ar    1  UNL1        0.0549
      7 C         143.2343  139.0652  156.2705 C.ar    1  UNL1        0.0233
      8 C         143.4925  138.6215  154.8612 C.ar    1  UNL1        0.0223
      9 C         142.7047  137.4873  154.2757 C.ar    1  UNL1        0.0990
     10 N         141.6587  136.7967  155.0996 N.ar    1  UNL1       -0.2408
     11 C         141.4004  137.2404  156.5090 C.ar    1  UNL1        0.1160
     12 C         142.1882  138.3746  157.0945 C.ar    1  UNL1        0.0804
     13 N         142.1558  139.0277  158.4445 N.ar    1  UNL1       -0.3132
     14 C         143.1818  140.1219  158.4549 C.ar    1  UNL1        0.1482
     15 N         143.5952  141.1001  159.5142 N.ar    1  UNL1       -0.1961
     16 C         141.2554  138.6524  159.5840 C.3     1  UNL1        0.0869
     17 C         141.8408  138.1241  160.8599 C.3     1  UNL1        0.0226
     18 C         140.9404  137.7488  161.9994 C.3     1  UNL1        0.0019
     19 C         139.4545  137.9019  161.8630 C.3     1  UNL1        0.0001
     20 C         138.5541  137.5266  163.0025 C.3     1  UNL1        0.0000
     21 C         138.8690  138.4303  160.5870 C.3     1  UNL1        0.0019
     22 C         139.7694  138.8056  159.4475 C.3     1  UNL1        0.0226
     23 C         143.3501  142.7814  164.4292 C.ar    1  UNL1        0.1536
     24 C         144.5913  142.0150  164.0799 C.ar    1  UNL1        0.0390
     25 C         145.1709  142.1144  162.6999 C.ar    1  UNL1        0.0392
     26 C         144.5091  142.9803  161.6692 C.ar    1  UNL1        0.1562
     27 N         143.2679  143.7467  162.0184 N.ar    1  UNL1       -0.1315
     28 N         142.6884  143.6472  163.3985 N.ar    1  UNL1       -0.1317
     29 C         141.6117  142.4829  168.5690 C.3     1  UNL1        0.0610
     30 C         140.7065  142.6629  167.3867 C.3     1  UNL1        0.0375
     31 C         141.2859  142.7624  166.0067 C.3     1  UNL1        0.0936
     32 N         142.7707  142.6819  165.8091 N.pl3   1  UNL1       -0.2918
     33 C         143.6759  142.5018  166.9916 C.3     1  UNL1        0.0936
     34 C         143.0964  142.4023  168.3714 C.3     1  UNL1        0.0375
     35 N         141.0321  142.3834  169.9490 N.3     1  UNL1       -0.2706
     36 C         139.9184  143.2991  170.3626 C.3     1  UNL1        0.0897
     37 C         141.5664  141.3682  170.9154 C.3     1  UNL1        0.1016
     38 C         142.3357  139.0792  169.9569 C.3     1  UNL1        0.0332
     39 C         141.3173  139.9074  170.6827 C.3     1  UNL1        0.1265
     40 O         140.0497  139.2749  171.1759 O.3     1  UNL1       -0.3830
     41 H         139.5057  139.9443  171.6195 H       1  UNL1        0.2104
@<TRIPOS>BOND
     1    39    38    1
     2    39    40    1
     3    39    37    1
     4    37    35    1
     5    35    36    1
     6    35    29    1
     7    29    30    1
     8    30    31    1
     9    31    32    1
    10    32    23    1
    11    23    24   ar
    12    24    25   ar
    13    25    26   ar
    14    26     1    1
    15     1     3    1
    16     3     4   ar
    17     4     5   ar
    18     5     6   ar
    19     6     7   ar
    20     7     8   ar
    21     8     9   ar
    22     9    10   ar
    23    10    11   ar
    24    11    12   ar
    25    12    13   ar
    26    16    13    1
    27    16    17    1
    28    17    18    1
    29    18    19    1
    30    19    20    1
    31    19    21    1
    32    21    22    1
    33    13    14   ar
    34    14    15   ar
    35    26    27   ar
    36    27    28   ar
    37    32    33    1
    38    33    34    1
    39    34    29    1
    40    28    23   ar
    41    15     3   ar
    42    14     6   ar
    43    12     7   ar
    44    22    16    1
    45    40    41    1
    46     1     2    1
