@<TRIPOS>MOLECULE
*****
 26 28 0 0 0
SMALL
GASTEIGER

@<TRIPOS>ATOM
      1 C         138.5440  138.9985  163.6473 C.ar    1  UNL1        0.1889
      2 C         139.4689  138.2062  164.5230 C.ar    1  UNL1        0.1403
      3 N         139.8777  138.7438  165.8623 N.ar    1  UNL1       -0.2204
      4 C         139.3616  140.0736  166.3261 C.ar    1  UNL1        0.1816
      5 N         138.4367  140.8659  165.4504 N.ar    1  UNL1       -0.2074
      6 C         138.0279  140.3284  164.1111 C.ar    1  UNL1        0.1663
      7 C         139.7704  140.6111  167.6654 C.ar    1  UNL1        0.1170
      8 C         140.4696  141.9348  167.7608 C.ar    1  UNL1        0.0223
      9 C         140.8784  142.4723  169.1001 C.ar    1  UNL1        0.0032
     10 C         140.5880  141.6862  170.3442 C.ar    1  UNL1        0.0207
     11 C         139.8889  140.3626  170.2489 C.ar    1  UNL1        0.0989
     12 N         139.4801  139.8251  168.9095 N.ar    1  UNL1       -0.2407
     13 C         139.0840  138.5351  161.1486 C.3     1  UNL1        0.2527
     14 O         138.1352  138.4610  162.3080 O.3     1  UNL1       -0.4670
     15 N         137.1030  141.1207  163.2354 N.pl3   1  UNL1       -0.3118
     16 H         136.1330  140.9551  163.2669 H       1  UNL1        0.1486
     17 C         137.6559  142.1654  162.3119 C.3     1  UNL1        0.1199
     18 C         138.7949  143.0336  162.7578 C.ar    1  UNL1        0.0525
     19 C         138.5945  144.0224  163.8678 C.ar    1  UNL1        0.1421
     20 F         137.2550  144.1430  164.5319 F       1  UNL1       -0.2043
     21 C         139.7336  144.8905  164.3137 C.ar    1  UNL1        0.0591
     22 C         141.0731  144.7699  163.6496 C.ar    1  UNL1        0.1446
     23 F         142.2122  145.6380  164.0955 F       1  UNL1       -0.2040
     24 C         141.2736  143.7811  162.5396 C.ar    1  UNL1        0.0591
     25 C         140.1346  142.9130  162.0937 C.ar    1  UNL1        0.1421
     26 F         140.3350  141.9242  160.9837 F       1  UNL1       -0.2043
@<TRIPOS>BOND
     1    13    14    1
     2    14     1    1
     3     1     2   ar
     4     2     3   ar
     5     3     4   ar
     6     4     7    1
     7     7     8   ar
     8     8     9   ar
     9     9    10   ar
    10    10    11   ar
    11    11    12   ar
    12     4     5   ar
    13     5     6   ar
    14     6    15    1
    15    15    17    1
    16    17    18    1
    17    18    19   ar
    18    19    20    1
    19    19    21   ar
    20    21    22   ar
    21    22    23    1
    22    22    24   ar
    23    24    25   ar
    24    25    26    1
    25     6     1   ar
    26    25    18   ar
    27    12     7   ar
    28    15    16    1
@<TRIPOS>MOLECULE
*****
 26 28 0 0 0
SMALL
GASTEIGER

@<TRIPOS>ATOM
      1 C         138.5212  138.7343  163.3182 C.ar    1  UNL1        0.1889
      2 C         139.3066  137.9288  164.3103 C.ar    1  UNL1        0.1403
      3 N         139.6465  138.5128  165.6494 N.ar    1  UNL1       -0.2204
      4 C         139.2009  139.9024  165.9966 C.ar    1  UNL1        0.1816
      5 N         138.4155  140.7079  165.0045 N.ar    1  UNL1       -0.2074
      6 C         138.0757  140.1239  163.6653 C.ar    1  UNL1        0.1663
      7 C         139.5407  140.4864  167.3358 C.ar    1  UNL1        0.1170
      8 C         140.2925  141.7816  167.4202 C.ar    1  UNL1        0.0223
      9 C         140.6324  142.3656  168.7594 C.ar    1  UNL1        0.0032
     10 C         140.2204  141.6545  170.0141 C.ar    1  UNL1        0.0207
     11 C         139.4686  140.3592  169.9297 C.ar    1  UNL1        0.0989
     12 N         139.1288  139.7752  168.5905 N.ar    1  UNL1       -0.2407
     13 C         139.1584  138.2543  160.8457 C.3     1  UNL1        0.2527
     14 O         138.1814  138.1503  161.9790 O.3     1  UNL1       -0.4670
     15 N         137.2902  140.9295  162.6733 N.pl3   1  UNL1       -0.3118
     16 H         136.3112  140.8364  162.6285 H       1  UNL1        0.1486
     17 C         137.9965  141.8769  161.7494 C.3     1  UNL1        0.1199
     18 C         139.0313  142.8192  162.2892 C.ar    1  UNL1        0.0525
     19 C         140.4887  142.4950  162.1455 C.ar    1  UNL1        0.1421
     20 F         140.9115  141.2285  161.4621 F       1  UNL1       -0.2043
     21 C         141.5235  143.4374  162.6853 C.ar    1  UNL1        0.0591
     22 C         141.1007  144.7039  163.3688 C.ar    1  UNL1        0.1446
     23 F         142.1354  145.6463  163.9085 F       1  UNL1       -0.2040
     24 C         139.6432  145.0282  163.5125 C.ar    1  UNL1        0.0591
     25 C         138.6085  144.0858  162.9727 C.ar    1  UNL1        0.1421
     26 F         137.1510  144.4101  163.1164 F       1  UNL1       -0.2043
@<TRIPOS>BOND
     1    13    14    1
     2    14     1    1
     3     1     2   ar
     4     2     3   ar
     5     3     4   ar
     6     4     7    1
     7     7     8   ar
     8     8     9   ar
     9     9    10   ar
    10    10    11   ar
    11    11    12   ar
    12     4     5   ar
    13     5     6   ar
    14     6    15    1
    15    15    17    1
    16    17    18    1
    17    18    19   ar
    18    19    20    1
    19    19    21   ar
    20    21    22   ar
    21    22    23    1
    22    22    24   ar
    23    24    25   ar
    24    25    26    1
    25     6     1   ar
    26    25    18   ar
    27    12     7   ar
    28    15    16    1
@<TRIPOS>MOLECULE
*****
 26 28 0 0 0
SMALL
GASTEIGER

@<TRIPOS>ATOM
      1 C         143.0264  139.2075  163.0875 C.ar    1  UNL1        0.1889
      2 C         141.6657  138.7580  163.5305 C.ar    1  UNL1        0.1403
      3 N         141.2643  138.8887  164.9698 N.ar    1  UNL1       -0.2204
      4 C         142.2236  139.4691  165.9662 C.ar    1  UNL1        0.1816
      5 N         143.5843  139.9186  165.5233 N.ar    1  UNL1       -0.2074
      6 C         143.9857  139.7879  164.0839 C.ar    1  UNL1        0.1663
      7 C         141.8221  139.5998  167.4056 C.ar    1  UNL1        0.1170
      8 C         140.4426  140.0703  167.7597 C.ar    1  UNL1        0.0223
      9 C         140.0412  140.2010  169.1991 C.ar    1  UNL1        0.0032
     10 C         141.0193  139.8614  170.2843 C.ar    1  UNL1        0.0207
     11 C         142.3988  139.3909  169.9302 C.ar    1  UNL1        0.0989
     12 N         142.8003  139.2602  168.4909 N.ar    1  UNL1       -0.2407
     13 C         143.9994  137.7851  161.1433 C.3     1  UNL1        0.2527
     14 O         143.4279  139.0767  161.6482 O.3     1  UNL1       -0.4670
     15 N         145.3466  140.2375  163.6410 N.pl3   1  UNL1       -0.3118
     16 H         146.0235  139.5725  163.3787 H       1  UNL1        0.1486
     17 C         145.6759  141.7002  163.5978 C.3     1  UNL1        0.1199
     18 C         144.5937  142.7053  163.3361 C.ar    1  UNL1        0.0525
     19 C         144.1340  143.6160  164.4357 C.ar    1  UNL1        0.1421
     20 F         144.7566  143.5217  165.7971 F       1  UNL1       -0.2043
     21 C         143.0517  144.6211  164.1739 C.ar    1  UNL1        0.0591
     22 C         142.4291  144.7154  162.8125 C.ar    1  UNL1        0.1446
     23 F         141.3468  145.7204  162.5507 F       1  UNL1       -0.2040
     24 C         142.8887  143.8046  161.7128 C.ar    1  UNL1        0.0591
     25 C         143.9710  142.7996  161.9746 C.ar    1  UNL1        0.1421
     26 F         144.4307  141.8888  160.8750 F       1  UNL1       -0.2043
@<TRIPOS>BOND
     1    13    14    1
     2    14     1    1
     3     1     2   ar
     4     2     3   ar
     5     3     4   ar
     6     4     7    1
     7     7     8   ar
     8     8     9   ar
     9     9    10   ar
    10    10    11   ar
    11    11    12   ar
    12     4     5   ar
    13     5     6   ar
    14     6    15    1
    15    15    17    1
    16    17    18    1
    17    18    19   ar
    18    19    20    1
    19    19    21   ar
    20    21    22   ar
    21    22    23    1
    22    22    24   ar
    23    24    25   ar
    24    25    26    1
    25     6     1   ar
    26    25    18   ar
    27    12     7   ar
    28    15    16    1
@<TRIPOS>MOLECULE
*****
 26 28 0 0 0
SMALL
GASTEIGER

@<TRIPOS>ATOM
      1 C         140.0769  138.1829  163.7914 C.ar    1  UNL1        0.1889
      2 C         138.7548  138.4036  164.4647 C.ar    1  UNL1        0.1403
      3 N         138.6867  139.1767  165.7484 N.ar    1  UNL1       -0.2204
      4 C         139.9406  139.7290  166.3587 C.ar    1  UNL1        0.1816
      5 N         141.2627  139.5083  165.6854 N.ar    1  UNL1       -0.2074
      6 C         141.3308  138.7353  164.4017 C.ar    1  UNL1        0.1663
      7 C         139.8725  140.5020  167.6424 C.ar    1  UNL1        0.1170
      8 C         140.4767  141.8724  167.7256 C.ar    1  UNL1        0.0223
      9 C         140.4086  142.6455  169.0092 C.ar    1  UNL1        0.0032
     10 C         139.7363  142.0481  170.2097 C.ar    1  UNL1        0.0207
     11 C         139.1321  140.6777  170.1265 C.ar    1  UNL1        0.0989
     12 N         139.2002  139.9047  168.8428 N.ar    1  UNL1       -0.2407
     13 C         139.9387  138.1113  161.1980 C.3     1  UNL1        0.2527
     14 O         140.1450  137.4099  162.5078 O.3     1  UNL1       -0.4670
     15 N         142.6530  138.5146  163.7284 N.pl3   1  UNL1       -0.3118
     16 H         143.1716  137.6994  163.9173 H       1  UNL1        0.1486
     17 C         143.1848  139.5360  162.7672 C.3     1  UNL1        0.1199
     18 C         143.3884  140.9529  163.2152 C.ar    1  UNL1        0.0525
     19 C         144.6830  141.3585  163.8553 C.ar    1  UNL1        0.1421
     20 F         145.7739  140.3471  164.0474 F       1  UNL1       -0.2043
     21 C         144.8865  142.7756  164.3033 C.ar    1  UNL1        0.0591
     22 C         143.7956  143.7869  164.1112 C.ar    1  UNL1        0.1446
     23 F         143.9992  145.2039  164.5592 F       1  UNL1       -0.2040
     24 C         142.5011  143.3814  163.4711 C.ar    1  UNL1        0.0591
     25 C         142.2975  141.9644  163.0231 C.ar    1  UNL1        0.1421
     26 F         141.0030  141.5588  162.3830 F       1  UNL1       -0.2043
@<TRIPOS>BOND
     1    13    14    1
     2    14     1    1
     3     1     2   ar
     4     2     3   ar
     5     3     4   ar
     6     4     7    1
     7     7     8   ar
     8     8     9   ar
     9     9    10   ar
    10    10    11   ar
    11    11    12   ar
    12     4     5   ar
    13     5     6   ar
    14     6    15    1
    15    15    17    1
    16    17    18    1
    17    18    19   ar
    18    19    20    1
    19    19    21   ar
    20    21    22   ar
    21    22    23    1
    22    22    24   ar
    23    24    25   ar
    24    25    26    1
    25     6     1   ar
    26    25    18   ar
    27    12     7   ar
    28    15    16    1
@<TRIPOS>MOLECULE
*****
 26 28 0 0 0
SMALL
GASTEIGER

@<TRIPOS>ATOM
      1 C         142.8173  138.3907  163.3234 C.ar    1  UNL1        0.1889
      2 C         143.8288  139.1166  164.1600 C.ar    1  UNL1        0.1403
      3 N         143.5005  139.4944  165.5740 N.ar    1  UNL1       -0.2204
      4 C         142.1607  139.1463  166.1515 C.ar    1  UNL1        0.1816
      5 N         141.1491  138.4204  165.3150 N.ar    1  UNL1       -0.2074
      6 C         141.4774  138.0426  163.9010 C.ar    1  UNL1        0.1663
      7 C         141.8324  139.5241  167.5655 C.ar    1  UNL1        0.1170
      8 C         140.4836  140.0909  167.8966 C.ar    1  UNL1        0.0223
      9 C         140.1553  140.4687  169.3106 C.ar    1  UNL1        0.0032
     10 C         141.1758  140.2797  170.3936 C.ar    1  UNL1        0.0207
     11 C         142.5246  139.7130  170.0626 C.ar    1  UNL1        0.0989
     12 N         142.8529  139.3352  168.6485 N.ar    1  UNL1       -0.2407
     13 C         144.0396  138.8923  161.0864 C.3     1  UNL1        0.2527
     14 O         143.1456  138.0129  161.9094 O.3     1  UNL1       -0.4670
     15 N         140.4658  137.3167  163.0645 N.pl3   1  UNL1       -0.3118
     16 H         140.7493  136.5745  162.4830 H       1  UNL1        0.1486
     17 C         139.0223  137.7216  163.1138 C.3     1  UNL1        0.1199
     18 C         138.6374  139.1545  162.8932 C.ar    1  UNL1        0.0525
     19 C         138.7352  139.7548  161.5221 C.ar    1  UNL1        0.1421
     20 F         139.2179  138.9223  160.3715 F       1  UNL1       -0.2043
     21 C         138.3502  141.1877  161.3015 C.ar    1  UNL1        0.0591
     22 C         137.8674  142.0202  162.4521 C.ar    1  UNL1        0.1446
     23 F         137.4824  143.4531  162.2315 F       1  UNL1       -0.2040
     24 C         137.7696  141.4199  163.8232 C.ar    1  UNL1        0.0591
     25 C         138.1546  139.9871  164.0438 C.ar    1  UNL1        0.1421
     26 F         138.0568  139.3867  165.4150 F       1  UNL1       -0.2043
@<TRIPOS>BOND
     1    13    14    1
     2    14     1    1
     3     1     2   ar
     4     2     3   ar
     5     3     4   ar
     6     4     7    1
     7     7     8   ar
     8     8     9   ar
     9     9    10   ar
    10    10    11   ar
    11    11    12   ar
    12     4     5   ar
    13     5     6   ar
    14     6    15    1
    15    15    17    1
    16    17    18    1
    17    18    19   ar
    18    19    20    1
    19    19    21   ar
    20    21    22   ar
    21    22    23    1
    22    22    24   ar
    23    24    25   ar
    24    25    26    1
    25     6     1   ar
    26    25    18   ar
    27    12     7   ar
    28    15    16    1
@<TRIPOS>MOLECULE
*****
 26 28 0 0 0
SMALL
GASTEIGER

@<TRIPOS>ATOM
      1 C         142.1607  143.7798  163.7013 C.ar    1  UNL1        0.1889
      2 C         142.8923  142.6707  164.3975 C.ar    1  UNL1        0.1403
      3 N         142.3331  142.0781  165.6569 N.ar    1  UNL1       -0.2204
      4 C         141.0424  142.5945  166.2201 C.ar    1  UNL1        0.1816
      5 N         140.3108  143.7036  165.5239 N.ar    1  UNL1       -0.2074
      6 C         140.8700  144.2962  164.2645 C.ar    1  UNL1        0.1663
      7 C         140.4832  142.0019  167.4795 C.ar    1  UNL1        0.1170
      8 C         139.9211  140.6113  167.4689 C.ar    1  UNL1        0.0223
      9 C         139.3619  140.0187  168.7283 C.ar    1  UNL1        0.0032
     10 C         139.3648  140.8167  169.9983 C.ar    1  UNL1        0.0207
     11 C         139.9269  142.2073  170.0090 C.ar    1  UNL1        0.0989
     12 N         140.4861  142.7999  168.7496 N.ar    1  UNL1       -0.2407
     13 C         143.2529  143.4762  161.3636 C.3     1  UNL1        0.2527
     14 O         142.7199  144.3724  162.4419 O.3     1  UNL1       -0.4670
     15 N         140.1383  145.4053  163.5682 N.pl3   1  UNL1       -0.3118
     16 H         140.3482  146.3432  163.7812 H       1  UNL1        0.1486
     17 C         139.0869  145.0852  162.5474 C.3     1  UNL1        0.1199
     18 C         138.6477  143.6656  162.3428 C.ar    1  UNL1        0.0525
     19 C         137.7303  143.0140  163.3347 C.ar    1  UNL1        0.1421
     20 F         137.2521  143.7819  164.5311 F       1  UNL1       -0.2043
     21 C         137.2912  141.5943  163.1300 C.ar    1  UNL1        0.0591
     22 C         137.7694  140.8264  161.9336 C.ar    1  UNL1        0.1446
     23 F         137.3302  139.4068  161.7290 F       1  UNL1       -0.2040
     24 C         138.6868  141.4780  160.9417 C.ar    1  UNL1        0.0591
     25 C         139.1260  142.8976  161.1463 C.ar    1  UNL1        0.1421
     26 F         140.0434  143.5492  160.1545 F       1  UNL1       -0.2043
@<TRIPOS>BOND
     1    13    14    1
     2    14     1    1
     3     1     2   ar
     4     2     3   ar
     5     3     4   ar
     6     4     7    1
     7     7     8   ar
     8     8     9   ar
     9     9    10   ar
    10    10    11   ar
    11    11    12   ar
    12     4     5   ar
    13     5     6   ar
    14     6    15    1
    15    15    17    1
    16    17    18    1
    17    18    19   ar
    18    19    20    1
    19    19    21   ar
    20    21    22   ar
    21    22    23    1
    22    22    24   ar
    23    24    25   ar
    24    25    26    1
    25     6     1   ar
    26    25    18   ar
    27    12     7   ar
    28    15    16    1
@<TRIPOS>MOLECULE
*****
 26 28 0 0 0
SMALL
GASTEIGER

@<TRIPOS>ATOM
      1 C         139.9053  145.0989  162.7507 C.ar    1  UNL1        0.1889
      2 C         138.6403  144.4171  163.1809 C.ar    1  UNL1        0.1403
      3 N         138.6539  143.4813  164.3531 N.ar    1  UNL1       -0.2204
      4 C         139.9325  143.2273  165.0952 C.ar    1  UNL1        0.1816
      5 N         141.1974  143.9091  164.6650 N.ar    1  UNL1       -0.2074
      6 C         141.1838  144.8449  163.4928 C.ar    1  UNL1        0.1663
      7 C         139.9461  142.2916  166.2674 C.ar    1  UNL1        0.1170
      8 C         140.5185  142.7409  167.5791 C.ar    1  UNL1        0.0223
      9 C         140.5321  141.8051  168.7514 C.ar    1  UNL1        0.0032
     10 C         139.9734  140.4201  168.6119 C.ar    1  UNL1        0.0207
     11 C         139.4011  139.9708  167.3003 C.ar    1  UNL1        0.0989
     12 N         139.3875  140.9065  166.1280 N.ar    1  UNL1       -0.2407
     13 C         140.2617  145.5331  160.2141 C.3     1  UNL1        0.2527
     14 O         139.8916  146.0346  161.5785 O.3     1  UNL1       -0.4670
     15 N         142.4488  145.5266  163.0626 N.pl3   1  UNL1       -0.3118
     16 H         142.4060  146.3459  162.5183 H       1  UNL1        0.1486
     17 C         143.7792  144.9601  163.4617 C.3     1  UNL1        0.1199
     18 C         144.0370  143.4882  163.3319 C.ar    1  UNL1        0.0525
     19 C         143.8661  142.8111  162.0044 C.ar    1  UNL1        0.1421
     20 F         143.4373  143.6058  160.8068 F       1  UNL1       -0.2043
     21 C         144.1239  141.3390  161.8747 C.ar    1  UNL1        0.0591
     22 C         144.5527  140.5443  163.0723 C.ar    1  UNL1        0.1446
     23 F         144.8105  139.0724  162.9425 F       1  UNL1       -0.2040
     24 C         144.7237  141.2214  164.3998 C.ar    1  UNL1        0.0591
     25 C         144.4658  142.6934  164.5296 C.ar    1  UNL1        0.1421
     26 F         144.6368  143.3705  165.8571 F       1  UNL1       -0.2043
@<TRIPOS>BOND
     1    13    14    1
     2    14     1    1
     3     1     2   ar
     4     2     3   ar
     5     3     4   ar
     6     4     7    1
     7     7     8   ar
     8     8     9   ar
     9     9    10   ar
    10    10    11   ar
    11    11    12   ar
    12     4     5   ar
    13     5     6   ar
    14     6    15    1
    15    15    17    1
    16    17    18    1
    17    18    19   ar
    18    19    20    1
    19    19    21   ar
    20    21    22   ar
    21    22    23    1
    22    22    24   ar
    23    24    25   ar
    24    25    26    1
    25     6     1   ar
    26    25    18   ar
    27    12     7   ar
    28    15    16    1
@<TRIPOS>MOLECULE
*****
 26 28 0 0 0
SMALL
GASTEIGER

@<TRIPOS>ATOM
      1 C         139.9161  145.1159  162.7587 C.ar    1  UNL1        0.1889
      2 C         138.6502  144.4479  163.2073 C.ar    1  UNL1        0.1403
      3 N         138.6678  143.5244  164.3892 N.ar    1  UNL1       -0.2204
      4 C         139.9511  143.2689  165.1224 C.ar    1  UNL1        0.1816
      5 N         141.2169  143.9370  164.6738 N.ar    1  UNL1       -0.2074
      6 C         141.1994  144.8605  163.4919 C.ar    1  UNL1        0.1663
      7 C         139.9686  142.3454  166.3043 C.ar    1  UNL1        0.1170
      8 C         139.4748  140.9362  166.1623 C.ar    1  UNL1        0.0223
      9 C         139.4923  140.0127  167.3442 C.ar    1  UNL1        0.0032
     10 C         140.0036  140.4984  168.6681 C.ar    1  UNL1        0.0207
     11 C         140.4974  141.9076  168.8100 C.ar    1  UNL1        0.0989
     12 N         140.4799  142.8312  167.6281 N.ar    1  UNL1       -0.2407
     13 C         140.2648  145.5239  160.2167 C.3     1  UNL1        0.2527
     14 O         139.8986  146.0394  161.5768 O.3     1  UNL1       -0.4670
     15 N         142.4654  145.5285  163.0433 N.pl3   1  UNL1       -0.3118
     16 H         142.4234  146.3437  162.4928 H       1  UNL1        0.1486
     17 C         143.7952  144.9546  163.4335 C.3     1  UNL1        0.1199
     18 C         144.0416  143.4804  163.3085 C.ar    1  UNL1        0.0525
     19 C         144.4830  142.6896  164.5042 C.ar    1  UNL1        0.1421
     20 F         144.6780  143.3732  165.8251 F       1  UNL1       -0.2043
     21 C         144.7294  141.2152  164.3791 C.ar    1  UNL1        0.0591
     22 C         144.5344  140.5317  163.0583 C.ar    1  UNL1        0.1446
     23 F         144.7809  139.0574  162.9332 F       1  UNL1       -0.2040
     24 C         144.0931  141.3224  161.8625 C.ar    1  UNL1        0.0591
     25 C         143.8466  142.7967  161.9876 C.ar    1  UNL1        0.1421
     26 F         143.4052  143.5874  160.7918 F       1  UNL1       -0.2043
@<TRIPOS>BOND
     1    13    14    1
     2    14     1    1
     3     1     2   ar
     4     2     3   ar
     5     3     4   ar
     6     4     7    1
     7     7     8   ar
     8     8     9   ar
     9     9    10   ar
    10    10    11   ar
    11    11    12   ar
    12     4     5   ar
    13     5     6   ar
    14     6    15    1
    15    15    17    1
    16    17    18    1
    17    18    19   ar
    18    19    20    1
    19    19    21   ar
    20    21    22   ar
    21    22    23    1
    22    22    24   ar
    23    24    25   ar
    24    25    26    1
    25     6     1   ar
    26    25    18   ar
    27    12     7   ar
    28    15    16    1
@<TRIPOS>MOLECULE
*****
 26 28 0 0 0
SMALL
GASTEIGER

@<TRIPOS>ATOM
      1 C         139.8866  138.3558  163.8356 C.ar    1  UNL1        0.1889
      2 C         138.5952  138.8047  164.4525 C.ar    1  UNL1        0.1403
      3 N         138.6091  139.6239  165.7090 N.ar    1  UNL1       -0.2204
      4 C         139.9144  139.9941  166.3485 C.ar    1  UNL1        0.1816
      5 N         141.2058  139.5452  165.7316 N.ar    1  UNL1       -0.2074
      6 C         141.1919  138.7260  164.4751 C.ar    1  UNL1        0.1663
      7 C         139.9283  140.8133  167.6050 C.ar    1  UNL1        0.1170
      8 C         139.4068  140.2315  168.8854 C.ar    1  UNL1        0.0223
      9 C         139.4207  141.0507  170.1419 C.ar    1  UNL1        0.0032
     10 C         139.9561  142.4516  170.1180 C.ar    1  UNL1        0.0207
     11 C         140.4776  143.0334  168.8376 C.ar    1  UNL1        0.0989
     12 N         140.4637  142.2142  167.5811 N.ar    1  UNL1       -0.2407
     13 C         139.5045  138.1741  161.2722 C.3     1  UNL1        0.2527
     14 O         139.8727  137.5366  162.5791 O.3     1  UNL1       -0.4670
     15 N         142.4834  138.2771  163.8581 N.pl3   1  UNL1       -0.3118
     16 H         142.8567  137.3947  164.0846 H       1  UNL1        0.1486
     17 C         143.2062  139.1727  162.8961 C.3     1  UNL1        0.1199
     18 C         143.4348  140.6145  163.2407 C.ar    1  UNL1        0.0525
     19 C         142.4525  141.6570  162.7955 C.ar    1  UNL1        0.1421
     20 F         141.2414  141.2576  162.0057 F       1  UNL1       -0.2043
     21 C         142.6812  143.0989  163.1401 C.ar    1  UNL1        0.0591
     22 C         143.8922  143.4983  163.9299 C.ar    1  UNL1        0.1446
     23 F         144.1208  144.9401  164.2746 F       1  UNL1       -0.2040
     24 C         144.8746  142.4558  164.3751 C.ar    1  UNL1        0.0591
     25 C         144.6459  141.0140  164.0305 C.ar    1  UNL1        0.1421
     26 F         145.6283  139.9715  164.4757 F       1  UNL1       -0.2043
@<TRIPOS>BOND
     1    13    14    1
     2    14     1    1
     3     1     2   ar
     4     2     3   ar
     5     3     4   ar
     6     4     7    1
     7     7     8   ar
     8     8     9   ar
     9     9    10   ar
    10    10    11   ar
    11    11    12   ar
    12     4     5   ar
    13     5     6   ar
    14     6    15    1
    15    15    17    1
    16    17    18    1
    17    18    19   ar
    18    19    20    1
    19    19    21   ar
    20    21    22   ar
    21    22    23    1
    22    22    24   ar
    23    24    25   ar
    24    25    26    1
    25     6     1   ar
    26    25    18   ar
    27    12     7   ar
    28    15    16    1
