@<TRIPOS>MOLECULE
*****
 40 45 0 0 0
SMALL
GASTEIGER

@<TRIPOS>ATOM
      1 C         140.8494  139.9149  159.9262 C.ar    1  UNL1        0.1669
      2 N         141.0151  139.6604  161.3951 N.ar    1  UNL1       -0.2221
      3 C         140.7531  140.9467  162.1208 C.ar    1  UNL1        0.1307
      4 C         140.7706  141.2979  163.5790 C.ar    1  UNL1        0.0777
      5 C         140.4604  142.6988  164.0168 C.ar    1  UNL1        0.0893
      6 CL        140.4778  143.0500  165.4751 Cl      1  UNL1       -0.0794
      7 C         140.1328  143.7482  162.9965 C.ar    1  UNL1        0.0863
      8 N         140.1153  143.3970  161.5383 N.ar    1  UNL1       -0.3354
      9 C         140.4255  141.9963  161.1005 C.ar    1  UNL1        0.1613
     10 N         140.4850  141.3586  159.7441 N.ar    1  UNL1       -0.2080
     11 H         139.9003  144.0859  160.8686 H       1  UNL1        0.1675
     12 C         142.3428  138.2279  158.6325 C.ar    1  UNL1        0.1428
     13 C         142.5117  137.2164  157.5378 C.ar    1  UNL1        0.0515
     14 C         141.3563  136.8804  156.6421 C.ar    1  UNL1        0.0510
     15 C         140.0320  137.5560  156.8411 C.ar    1  UNL1        0.0148
     16 C         139.8630  138.5675  157.9359 C.ar    1  UNL1        0.0074
     17 C         141.0184  138.9034  158.8315 C.ar    1  UNL1        0.0698
     18 N         141.5253  135.8689  155.5474 N.pl3   1  UNL1       -0.3046
     19 C         140.7556  136.0128  154.2681 C.3     1  UNL1        0.1081
     20 C         140.9246  135.0013  153.1734 C.3     1  UNL1        0.0938
     21 N         141.8633  133.8460  153.3580 N.3     1  UNL1       -0.2686
     22 C         142.0323  132.8345  152.2634 C.3     1  UNL1        0.0897
     23 C         142.6330  133.7021  154.6375 C.3     1  UNL1        0.0938
     24 C         142.4640  134.7136  155.7322 C.3     1  UNL1        0.1081
     25 C         143.7538  137.7479  160.7606 C.3     1  UNL1        0.2525
     26 O         143.4982  138.5638  159.5281 O.3     1  UNL1       -0.4713
     27 N         141.0982  140.2484  164.5995 N.pl3   1  UNL1       -0.3313
     28 H         142.0354  140.0817  164.8507 H       1  UNL1        0.1469
     29 C         139.9979  139.4531  165.2372 C.3     1  UNL1        0.0819
     30 C         139.3696  138.2112  164.6780 C.3     1  UNL1        0.0983
     31 C         138.3161  137.7505  165.6412 C.3     1  UNL1        0.0323
     32 C         137.6508  138.0575  166.9502 C.2     1  UNL1       -0.0304
     33 C         138.2791  139.2994  167.5094 C.2     1  UNL1       -0.0294
     34 C         139.3327  139.7601  166.5461 C.3     1  UNL1        0.0404
     35 C         139.3555  138.8028  165.3915 C.3     1  UNL1        0.0109
     36 C         139.7313  137.5465  163.3828 C.2     1  UNL1        0.2208
     37 N         138.8068  137.6445  162.2056 N.am    1  UNL1       -0.3288
     38 O         141.0176  136.7838  163.2648 O.2     1  UNL1       -0.2753
     39 H         137.9626  138.1451  162.2831 H       1  UNL1        0.1449
     40 H         139.0442  137.2083  161.3556 H       1  UNL1        0.1449
@<TRIPOS>BOND
     1    25    26    1
     2    26    12    1
     3    12    13   ar
     4    13    14   ar
     5    14    18    1
     6    18    19    1
     7    19    20    1
     8    20    21    1
     9    21    22    1
    10    21    23    1
    11    23    24    1
    12    14    15   ar
    13    15    16   ar
    14    16    17   ar
    15    17     1    1
    16     1     2   ar
    17     2     3   ar
    18     3     4   ar
    19     4    27    1
    20    29    27    1
    21    29    30    1
    22    30    36    1
    23    36    37   am
    24    36    38    2
    25    30    31    1
    26    31    32    1
    27    32    33    2
    28    34    33    1
    29    34    35    1
    30     4     5   ar
    31     5     6    1
    32     5     7   ar
    33     7     8   ar
    34     8     9   ar
    35     9    10   ar
    36    17    12   ar
    37    10     1   ar
    38    24    18    1
    39     9     3    1
    40    34    29    1
    41    35    31    1
    42    27    28    1
    43    37    39    1
    44    37    40    1
    45     8    11    1
@<TRIPOS>MOLECULE
*****
 40 45 0 0 0
SMALL
GASTEIGER

@<TRIPOS>ATOM
      1 C         139.3525  142.5250  158.3653 C.ar    1  UNL1        0.1669
      2 N         138.5559  142.2622  159.6088 N.ar    1  UNL1       -0.2221
      3 C         138.8192  140.8492  160.0379 C.ar    1  UNL1        0.1307
      4 C         138.3093  140.0395  161.1931 C.ar    1  UNL1        0.0777
      5 C         138.7588  138.6194  161.3699 C.ar    1  UNL1        0.0893
      6 CL        138.2489  137.8096  162.5252 Cl      1  UNL1       -0.0794
      7 C         139.7181  138.0090  160.3917 C.ar    1  UNL1        0.0863
      8 N         140.2280  138.8186  159.2365 N.ar    1  UNL1       -0.3354
      9 C         139.7786  140.2387  159.0596 C.ar    1  UNL1        0.1613
     10 N         140.1082  141.2745  158.0259 N.ar    1  UNL1       -0.2080
     11 H         140.8576  138.4180  158.5944 H       1  UNL1        0.1675
     12 C         140.1655  144.9808  158.1247 C.ar    1  UNL1        0.1428
     13 C         140.2003  146.2682  157.3555 C.ar    1  UNL1        0.0515
     14 C         139.4572  146.3871  156.0580 C.ar    1  UNL1        0.0510
     15 C         138.6791  145.2186  155.5296 C.ar    1  UNL1        0.0148
     16 C         138.6443  143.9312  156.2987 C.ar    1  UNL1        0.0074
     17 C         139.3874  143.8123  157.5962 C.ar    1  UNL1        0.0698
     18 N         139.4921  147.6744  155.2889 N.pl3   1  UNL1       -0.3046
     19 C         138.8272  148.8985  155.8451 C.3     1  UNL1        0.1081
     20 C         138.8621  150.1859  155.0760 C.3     1  UNL1        0.0938
     21 N         139.5618  150.2492  153.7508 N.3     1  UNL1       -0.2686
     22 C         139.5967  151.5365  152.9817 C.3     1  UNL1        0.0897
     23 C         140.2267  149.0250  153.1945 C.3     1  UNL1        0.0938
     24 C         140.1918  147.7376  153.9636 C.3     1  UNL1        0.1081
     25 C         140.3250  145.4414  160.6766 C.3     1  UNL1        0.2525
     26 O         140.9087  144.8621  159.4221 O.3     1  UNL1       -0.4713
     27 N         137.3500  140.6499  162.1715 N.pl3   1  UNL1       -0.3313
     28 H         136.4156  140.3414  162.2024 H       1  UNL1        0.1469
     29 C         137.8143  141.7303  163.1026 C.3     1  UNL1        0.0819
     30 C         138.5153  141.5241  164.4125 C.3     1  UNL1        0.0983
     31 C         138.7934  142.8730  165.0068 C.3     1  UNL1        0.0323
     32 C         138.6382  144.3494  164.7915 C.2     1  UNL1       -0.0304
     33 C         137.9371  144.5556  163.4816 C.2     1  UNL1       -0.0294
     34 C         137.6591  143.2067  162.8873 C.3     1  UNL1        0.0404
     35 C         138.1883  142.1668  163.8299 C.3     1  UNL1        0.0109
     36 C         138.8752  140.2013  165.0213 C.2     1  UNL1        0.2208
     37 N         140.2520  139.6375  164.8304 N.am    1  UNL1       -0.3288
     38 O         137.8581  139.4422  165.8210 O.2     1  UNL1       -0.2753
     39 H         140.9195  140.1356  164.3056 H       1  UNL1        0.1449
     40 H         140.4881  138.7692  165.2300 H       1  UNL1        0.1449
@<TRIPOS>BOND
     1    25    26    1
     2    26    12    1
     3    12    13   ar
     4    13    14   ar
     5    14    18    1
     6    18    19    1
     7    19    20    1
     8    20    21    1
     9    21    22    1
    10    21    23    1
    11    23    24    1
    12    14    15   ar
    13    15    16   ar
    14    16    17   ar
    15    17     1    1
    16     1     2   ar
    17     2     3   ar
    18     3     4   ar
    19     4    27    1
    20    29    27    1
    21    29    30    1
    22    30    36    1
    23    36    37   am
    24    36    38    2
    25    30    31    1
    26    31    32    1
    27    32    33    2
    28    34    33    1
    29    34    35    1
    30     4     5   ar
    31     5     6    1
    32     5     7   ar
    33     7     8   ar
    34     8     9   ar
    35     9    10   ar
    36    17    12   ar
    37    10     1   ar
    38    24    18    1
    39     9     3    1
    40    34    29    1
    41    35    31    1
    42    27    28    1
    43    37    39    1
    44    37    40    1
    45     8    11    1
@<TRIPOS>MOLECULE
*****
 40 45 0 0 0
SMALL
GASTEIGER

@<TRIPOS>ATOM
      1 C         139.5529  142.3590  160.6238 C.ar    1  UNL1        0.1669
      2 N         140.2993  142.4668  161.9204 N.ar    1  UNL1       -0.2221
      3 C         139.8762  141.3240  162.7951 C.ar    1  UNL1        0.1307
      4 C         140.2784  140.9195  164.1824 C.ar    1  UNL1        0.0777
      5 C         139.6728  139.7009  164.8136 C.ar    1  UNL1        0.0893
      6 CL        140.0750  139.2964  166.2010 Cl      1  UNL1       -0.0794
      7 C         138.6650  138.8870  164.0576 C.ar    1  UNL1        0.0863
      8 N         138.2627  139.2915  162.6703 N.ar    1  UNL1       -0.3354
      9 C         138.8683  140.5100  162.0391 C.ar    1  UNL1        0.1613
     10 N         138.6685  141.1496  160.6971 N.ar    1  UNL1       -0.2080
     11 H         137.6013  138.7572  162.1741 H       1  UNL1        0.1675
     12 C         140.1637  144.6968  159.6690 C.ar    1  UNL1        0.1428
     13 C         140.2810  145.6338  158.5036 C.ar    1  UNL1        0.0515
     14 C         139.9050  145.1701  157.1275 C.ar    1  UNL1        0.0510
     15 C         139.4117  143.7693  156.9168 C.ar    1  UNL1        0.0148
     16 C         139.2943  142.8323  158.0823 C.ar    1  UNL1        0.0074
     17 C         139.6703  143.2960  159.4584 C.ar    1  UNL1        0.0698
     18 N         140.0224  146.1072  155.9621 N.pl3   1  UNL1       -0.3046
     19 C         139.2731  147.4065  155.9662 C.3     1  UNL1        0.1081
     20 C         139.3905  148.3436  154.8008 C.3     1  UNL1        0.0938
     21 N         140.2571  147.9813  153.6314 N.3     1  UNL1       -0.2686
     22 C         140.3745  148.9184  152.4660 C.3     1  UNL1        0.0897
     23 C         141.0065  146.6819  153.6273 C.3     1  UNL1        0.0938
     24 C         140.8891  145.7448  154.7927 C.3     1  UNL1        0.1081
     25 C         139.7502  146.2478  161.7119 C.3     1  UNL1        0.2525
     26 O         140.5397  145.1606  161.0450 O.3     1  UNL1       -0.4713
     27 N         141.2863  141.7335  164.9385 N.pl3   1  UNL1       -0.3313
     28 H         141.0128  142.2334  165.7414 H       1  UNL1        0.1469
     29 C         142.7107  141.7859  164.4714 C.3     1  UNL1        0.0819
     30 C         143.3864  142.9630  163.8327 C.3     1  UNL1        0.0983
     31 C         144.8028  142.5749  163.5275 C.3     1  UNL1        0.0323
     32 C         145.8016  141.4595  163.6170 C.2     1  UNL1       -0.0304
     33 C         145.1260  140.2824  164.2557 C.2     1  UNL1       -0.0294
     34 C         143.7095  140.6704  164.5609 C.3     1  UNL1        0.0404
     35 C         143.5098  142.0873  164.1109 C.3     1  UNL1        0.0109
     36 C         142.7562  144.2943  163.5490 C.2     1  UNL1        0.2208
     37 N         143.3372  145.1898  162.4952 N.am    1  UNL1       -0.3288
     38 O         141.5451  144.7302  164.3192 O.2     1  UNL1       -0.2753
     39 H         144.1321  144.9037  161.9897 H       1  UNL1        0.1449
     40 H         142.9236  146.0636  162.3090 H       1  UNL1        0.1449
@<TRIPOS>BOND
     1    25    26    1
     2    26    12    1
     3    12    13   ar
     4    13    14   ar
     5    14    18    1
     6    18    19    1
     7    19    20    1
     8    20    21    1
     9    21    22    1
    10    21    23    1
    11    23    24    1
    12    14    15   ar
    13    15    16   ar
    14    16    17   ar
    15    17     1    1
    16     1     2   ar
    17     2     3   ar
    18     3     4   ar
    19     4    27    1
    20    29    27    1
    21    29    30    1
    22    30    36    1
    23    36    37   am
    24    36    38    2
    25    30    31    1
    26    31    32    1
    27    32    33    2
    28    34    33    1
    29    34    35    1
    30     4     5   ar
    31     5     6    1
    32     5     7   ar
    33     7     8   ar
    34     8     9   ar
    35     9    10   ar
    36    17    12   ar
    37    10     1   ar
    38    24    18    1
    39     9     3    1
    40    34    29    1
    41    35    31    1
    42    27    28    1
    43    37    39    1
    44    37    40    1
    45     8    11    1
@<TRIPOS>MOLECULE
*****
 40 45 0 0 0
SMALL
GASTEIGER

@<TRIPOS>ATOM
      1 C         139.8760  141.7870  159.8364 C.ar    1  UNL1        0.1669
      2 N         139.1340  141.6864  161.1361 N.ar    1  UNL1       -0.2221
      3 C         139.4545  140.3562  161.7510 C.ar    1  UNL1        0.1307
      4 C         139.0118  139.7088  163.0295 C.ar    1  UNL1        0.0777
      5 C         139.5092  138.3398  163.3883 C.ar    1  UNL1        0.0893
      6 CL        139.0664  137.6922  164.6669 Cl      1  UNL1       -0.0794
      7 C         140.4492  137.6185  162.4687 C.ar    1  UNL1        0.0863
      8 N         140.8920  138.2660  161.1901 N.ar    1  UNL1       -0.3354
      9 C         140.3946  139.6348  160.8313 C.ar    1  UNL1        0.1613
     10 N         140.6551  140.5191  159.6480 N.ar    1  UNL1       -0.2080
     11 H         141.5090  137.7925  160.5865 H       1  UNL1        0.1675
     12 C         140.4101  144.2750  159.3124 C.ar    1  UNL1        0.1428
     13 C         140.3785  145.4392  158.3669 C.ar    1  UNL1        0.0515
     14 C         139.7814  145.2795  157.0002 C.ar    1  UNL1        0.0510
     15 C         139.2159  143.9557  156.5788 C.ar    1  UNL1        0.0148
     16 C         139.2475  142.7915  157.5243 C.ar    1  UNL1        0.0074
     17 C         139.8445  142.9512  158.8910 C.ar    1  UNL1        0.0698
     18 N         139.7499  146.4437  156.0548 N.pl3   1  UNL1       -0.3046
     19 C         140.5258  146.3894  154.7722 C.3     1  UNL1        0.1081
     20 C         140.4943  147.5536  153.8269 C.3     1  UNL1        0.0938
     21 N         139.6870  148.7719  154.1640 N.3     1  UNL1       -0.2686
     22 C         139.6555  149.9361  153.2187 C.3     1  UNL1        0.0897
     23 C         138.9111  148.8262  155.4467 C.3     1  UNL1        0.0938
     24 C         138.9426  147.6621  156.3921 C.3     1  UNL1        0.1081
     25 C         140.2315  145.1272  161.7602 C.3     1  UNL1        0.2525
     26 O         141.0072  144.4348  160.6791 O.3     1  UNL1       -0.4713
     27 N         138.0717  140.4301  163.9493 N.pl3   1  UNL1       -0.3313
     28 H         137.1895  140.0437  164.1534 H       1  UNL1        0.1469
     29 C         138.4757  141.7401  164.5580 C.3     1  UNL1        0.0819
     30 C         139.6046  141.9533  165.5224 C.3     1  UNL1        0.0983
     31 C         139.6484  143.4119  165.8696 C.3     1  UNL1        0.0323
     32 C         138.9945  144.7388  165.6207 C.2     1  UNL1       -0.0304
     33 C         137.8657  144.5256  164.6563 C.2     1  UNL1       -0.0294
     34 C         137.8218  143.0670  164.3091 C.3     1  UNL1        0.0404
     35 C         138.9236  142.3786  165.0590 C.3     1  UNL1        0.0109
     36 C         140.5276  140.8939  166.0475 C.2     1  UNL1        0.2208
     37 N         140.2430  140.2374  167.3658 N.am    1  UNL1       -0.3288
     38 O         141.7353  140.4910  165.2543 O.2     1  UNL1       -0.2753
     39 H         139.4503  140.5018  167.8865 H       1  UNL1        0.1449
     40 H         140.8488  139.5421  167.7105 H       1  UNL1        0.1449
@<TRIPOS>BOND
     1    25    26    1
     2    26    12    1
     3    12    13   ar
     4    13    14   ar
     5    14    18    1
     6    18    19    1
     7    19    20    1
     8    20    21    1
     9    21    22    1
    10    21    23    1
    11    23    24    1
    12    14    15   ar
    13    15    16   ar
    14    16    17   ar
    15    17     1    1
    16     1     2   ar
    17     2     3   ar
    18     3     4   ar
    19     4    27    1
    20    29    27    1
    21    29    30    1
    22    30    36    1
    23    36    37   am
    24    36    38    2
    25    30    31    1
    26    31    32    1
    27    32    33    2
    28    34    33    1
    29    34    35    1
    30     4     5   ar
    31     5     6    1
    32     5     7   ar
    33     7     8   ar
    34     8     9   ar
    35     9    10   ar
    36    17    12   ar
    37    10     1   ar
    38    24    18    1
    39     9     3    1
    40    34    29    1
    41    35    31    1
    42    27    28    1
    43    37    39    1
    44    37    40    1
    45     8    11    1
@<TRIPOS>MOLECULE
*****
 40 45 0 0 0
SMALL
GASTEIGER

@<TRIPOS>ATOM
      1 C         139.5922  142.3019  159.3185 C.ar    1  UNL1        0.1669
      2 N         138.9886  142.2670  160.6912 N.ar    1  UNL1       -0.2221
      3 C         139.1903  140.8902  161.2514 C.ar    1  UNL1        0.1307
      4 C         138.8049  140.2742  162.5636 C.ar    1  UNL1        0.0777
      5 C         139.1478  138.8421  162.8492 C.ar    1  UNL1        0.0893
      6 CL        138.7624  138.2260  164.1616 Cl      1  UNL1       -0.0794
      7 C         139.8760  138.0261  161.8228 C.ar    1  UNL1        0.0863
      8 N         140.2614  138.6422  160.5105 N.ar    1  UNL1       -0.3354
      9 C         139.9186  140.0742  160.2248 C.ar    1  UNL1        0.1613
     10 N         140.1669  140.9467  159.0302 N.ar    1  UNL1       -0.2080
     11 H         140.7394  138.1066  159.8368 H       1  UNL1        0.1675
     12 C         140.2420  144.7722  158.8437 C.ar    1  UNL1        0.1428
     13 C         140.2665  145.9546  157.9211 C.ar    1  UNL1        0.0515
     14 C         139.6658  145.8493  156.5506 C.ar    1  UNL1        0.0510
     15 C         139.0406  144.5615  156.1028 C.ar    1  UNL1        0.0148
     16 C         139.0161  143.3790  157.0255 C.ar    1  UNL1        0.0074
     17 C         139.6167  143.4844  158.3959 C.ar    1  UNL1        0.0698
     18 N         139.6904  147.0318  155.6281 N.pl3   1  UNL1       -0.3046
     19 C         140.4753  146.9706  154.3513 C.3     1  UNL1        0.1081
     20 C         140.4998  148.1531  153.4287 C.3     1  UNL1        0.0938
     21 N         139.7395  149.3966  153.7828 N.3     1  UNL1       -0.2686
     22 C         139.7641  150.5791  152.8603 C.3     1  UNL1        0.0897
     23 C         138.9546  149.4578  155.0597 C.3     1  UNL1        0.0938
     24 C         138.9300  148.2753  155.9822 C.3     1  UNL1        0.1081
     25 C         142.1182  144.1550  160.5316 C.3     1  UNL1        0.2525
     26 O         140.8427  144.8776  160.2141 O.3     1  UNL1       -0.4713
     27 N         138.0767  141.0902  163.5902 N.pl3   1  UNL1       -0.3313
     28 H         137.0980  141.1846  163.5402 H       1  UNL1        0.1469
     29 C         138.8395  141.7623  164.6930 C.3     1  UNL1        0.0819
     30 C         139.2063  143.2156  164.7527 C.3     1  UNL1        0.0983
     31 C         139.9630  143.4507  166.0263 C.3     1  UNL1        0.0323
     32 C         140.4931  142.7877  167.2630 C.2     1  UNL1       -0.0304
     33 C         140.1263  141.3345  167.2033 C.2     1  UNL1       -0.0294
     34 C         139.3696  141.0993  165.9297 C.3     1  UNL1        0.0404
     35 C         139.2686  142.4072  165.2022 C.3     1  UNL1        0.0109
     36 C         138.8745  144.2518  163.7201 C.2     1  UNL1        0.2208
     37 N         139.9057  145.2624  163.3134 N.am    1  UNL1       -0.3288
     38 O         137.5116  144.2773  163.0941 O.2     1  UNL1       -0.2753
     39 H         140.8002  145.2456  163.7243 H       1  UNL1        0.1449
     40 H         139.6879  145.9425  162.6357 H       1  UNL1        0.1449
@<TRIPOS>BOND
     1    25    26    1
     2    26    12    1
     3    12    13   ar
     4    13    14   ar
     5    14    18    1
     6    18    19    1
     7    19    20    1
     8    20    21    1
     9    21    22    1
    10    21    23    1
    11    23    24    1
    12    14    15   ar
    13    15    16   ar
    14    16    17   ar
    15    17     1    1
    16     1     2   ar
    17     2     3   ar
    18     3     4   ar
    19     4    27    1
    20    29    27    1
    21    29    30    1
    22    30    36    1
    23    36    37   am
    24    36    38    2
    25    30    31    1
    26    31    32    1
    27    32    33    2
    28    34    33    1
    29    34    35    1
    30     4     5   ar
    31     5     6    1
    32     5     7   ar
    33     7     8   ar
    34     8     9   ar
    35     9    10   ar
    36    17    12   ar
    37    10     1   ar
    38    24    18    1
    39     9     3    1
    40    34    29    1
    41    35    31    1
    42    27    28    1
    43    37    39    1
    44    37    40    1
    45     8    11    1
@<TRIPOS>MOLECULE
*****
 40 45 0 0 0
SMALL
GASTEIGER

@<TRIPOS>ATOM
      1 C         139.3887  142.5072  160.8036 C.ar    1  UNL1        0.1669
      2 N         140.3728  141.4764  161.2712 N.ar    1  UNL1       -0.2221
      3 C         139.8085  140.8187  162.4956 C.ar    1  UNL1        0.1307
      4 C         140.3362  139.7319  163.3846 C.ar    1  UNL1        0.0777
      5 C         139.5309  139.2695  164.5627 C.ar    1  UNL1        0.0893
      6 CL        140.0587  138.1826  165.4518 Cl      1  UNL1       -0.0794
      7 C         138.1981  139.8938  164.8517 C.ar    1  UNL1        0.0863
      8 N         137.6704  140.9806  163.9627 N.ar    1  UNL1       -0.3354
      9 C         138.4756  141.4431  162.7846 C.ar    1  UNL1        0.1613
     10 N         138.2161  142.4867  161.7389 N.ar    1  UNL1       -0.2080
     11 H         136.7956  141.3905  164.1524 H       1  UNL1        0.1675
     12 C         140.2162  144.7369  159.7578 C.ar    1  UNL1        0.1428
     13 C         140.3763  145.6313  158.5643 C.ar    1  UNL1        0.0515
     14 C         139.8692  145.1906  157.2232 C.ar    1  UNL1        0.0510
     15 C         139.2019  143.8553  157.0755 C.ar    1  UNL1        0.0148
     16 C         139.0417  142.9609  158.2691 C.ar    1  UNL1        0.0074
     17 C         139.5489  143.4017  159.6102 C.ar    1  UNL1        0.0698
     18 N         140.0294  146.0850  156.0298 N.pl3   1  UNL1       -0.3046
     19 C         140.9399  145.6825  154.9077 C.3     1  UNL1        0.1081
     20 C         141.1001  146.5769  153.7143 C.3     1  UNL1        0.0938
     21 N         140.3499  147.8738  153.6429 N.3     1  UNL1       -0.2686
     22 C         140.5101  148.7683  152.4494 C.3     1  UNL1        0.0897
     23 C         139.4394  148.2764  154.7650 C.3     1  UNL1        0.0938
     24 C         139.2792  147.3819  155.9584 C.3     1  UNL1        0.1081
     25 C         139.8398  145.9789  162.0085 C.3     1  UNL1        0.2525
     26 O         140.7233  145.1778  161.0988 O.3     1  UNL1       -0.4713
     27 N         141.6691  139.1074  163.0956 N.pl3   1  UNL1       -0.3313
     28 H         141.7179  138.1794  162.7707 H       1  UNL1        0.1469
     29 C         142.9277  139.8969  163.3017 C.3     1  UNL1        0.0819
     30 C         143.6786  140.0379  164.5926 C.3     1  UNL1        0.0983
     31 C         144.8714  140.9122  164.3419 C.3     1  UNL1        0.0323
     32 C         145.6001  141.6994  163.2934 C.2     1  UNL1       -0.0304
     33 C         144.8492  141.5584  162.0026 C.2     1  UNL1       -0.0294
     34 C         143.6564  140.6841  162.2532 C.3     1  UNL1        0.0404
     35 C         143.6701  140.2847  163.6990 C.3     1  UNL1        0.0109
     36 C         143.3027  139.4141  165.9039 C.2     1  UNL1        0.2208
     37 N         142.5045  140.1957  166.9049 N.am    1  UNL1       -0.3288
     38 O         143.7250  138.0086  166.2143 O.2     1  UNL1       -0.2753
     39 H         142.2273  141.1182  166.7011 H       1  UNL1        0.1449
     40 H         142.2578  139.7863  167.7655 H       1  UNL1        0.1449
@<TRIPOS>BOND
     1    25    26    1
     2    26    12    1
     3    12    13   ar
     4    13    14   ar
     5    14    18    1
     6    18    19    1
     7    19    20    1
     8    20    21    1
     9    21    22    1
    10    21    23    1
    11    23    24    1
    12    14    15   ar
    13    15    16   ar
    14    16    17   ar
    15    17     1    1
    16     1     2   ar
    17     2     3   ar
    18     3     4   ar
    19     4    27    1
    20    29    27    1
    21    29    30    1
    22    30    36    1
    23    36    37   am
    24    36    38    2
    25    30    31    1
    26    31    32    1
    27    32    33    2
    28    34    33    1
    29    34    35    1
    30     4     5   ar
    31     5     6    1
    32     5     7   ar
    33     7     8   ar
    34     8     9   ar
    35     9    10   ar
    36    17    12   ar
    37    10     1   ar
    38    24    18    1
    39     9     3    1
    40    34    29    1
    41    35    31    1
    42    27    28    1
    43    37    39    1
    44    37    40    1
    45     8    11    1
@<TRIPOS>MOLECULE
*****
 40 45 0 0 0
SMALL
GASTEIGER

@<TRIPOS>ATOM
      1 C         140.0175  141.0709  160.3326 C.ar    1  UNL1        0.1669
      2 N         139.4737  140.9220  161.7226 N.ar    1  UNL1       -0.2221
      3 C         139.2365  142.2955  162.2771 C.ar    1  UNL1        0.1307
      4 C         138.7102  142.7665  163.6004 C.ar    1  UNL1        0.0777
      5 C         138.5811  144.2353  163.8762 C.ar    1  UNL1        0.0893
      6 CL        138.0547  144.7064  165.1996 Cl      1  UNL1       -0.0794
      7 C         138.9782  145.2329  162.8289 C.ar    1  UNL1        0.0863
      8 N         139.5045  144.7619  161.5057 N.ar    1  UNL1       -0.3354
      9 C         139.6337  143.2932  161.2297 C.ar    1  UNL1        0.1613
     10 N         140.1163  142.5363  160.0280 N.ar    1  UNL1       -0.2080
     11 H         139.7651  145.4167  160.8183 H       1  UNL1        0.1675
     12 C         139.3793  139.3817  158.4646 C.ar    1  UNL1        0.1428
     13 C         139.7579  138.2618  157.5413 C.ar    1  UNL1        0.0515
     14 C         141.1530  137.7111  157.5626 C.ar    1  UNL1        0.0510
     15 C         142.1696  138.2803  158.5073 C.ar    1  UNL1        0.0148
     16 C         141.7910  139.4003  159.4306 C.ar    1  UNL1        0.0074
     17 C         140.3959  139.9510  159.4093 C.ar    1  UNL1        0.0698
     18 N         141.5314  136.5912  156.6393 N.pl3   1  UNL1       -0.3046
     19 C         142.7949  135.8183  156.8764 C.3     1  UNL1        0.1081
     20 C         143.1734  134.6984  155.9530 C.3     1  UNL1        0.0938
     21 N         142.2885  134.3513  154.7928 N.3     1  UNL1       -0.2686
     22 C         142.6669  133.2314  153.8694 C.3     1  UNL1        0.0897
     23 C         141.0249  135.1242  154.5557 C.3     1  UNL1        0.0938
     24 C         140.6464  136.2441  155.4790 C.3     1  UNL1        0.1081
     25 C         137.6016  140.9665  157.4263 C.3     1  UNL1        0.2525
     26 O         137.9842  139.9323  158.4432 O.3     1  UNL1       -0.4713
     27 N         138.3131  141.7689  164.6478 N.pl3   1  UNL1       -0.3313
     28 H         137.4039  141.3911  164.6482 H       1  UNL1        0.1469
     29 C         139.3011  141.3468  165.6945 C.3     1  UNL1        0.0819
     30 C         139.3825  139.9930  166.3352 C.3     1  UNL1        0.0983
     31 C         140.5129  140.0138  167.3209 C.3     1  UNL1        0.0323
     32 C         141.5930  140.8714  167.9107 C.2     1  UNL1       -0.0304
     33 C         141.5117  142.2253  167.2700 C.2     1  UNL1       -0.0294
     34 C         140.3812  142.2044  166.2842 C.3     1  UNL1        0.0404
     35 C         139.7639  140.8377  166.3157 C.3     1  UNL1        0.0109
     36 C         138.4900  138.8235  166.0417 C.2     1  UNL1        0.2208
     37 N         138.7913  137.9230  164.8805 N.am    1  UNL1       -0.3288
     38 O         137.2964  138.5547  166.9093 O.2     1  UNL1       -0.2753
     39 H         139.5748  138.0995  164.3111 H       1  UNL1        0.1449
     40 H         138.2056  137.1555  164.6879 H       1  UNL1        0.1449
@<TRIPOS>BOND
     1    25    26    1
     2    26    12    1
     3    12    13   ar
     4    13    14   ar
     5    14    18    1
     6    18    19    1
     7    19    20    1
     8    20    21    1
     9    21    22    1
    10    21    23    1
    11    23    24    1
    12    14    15   ar
    13    15    16   ar
    14    16    17   ar
    15    17     1    1
    16     1     2   ar
    17     2     3   ar
    18     3     4   ar
    19     4    27    1
    20    29    27    1
    21    29    30    1
    22    30    36    1
    23    36    37   am
    24    36    38    2
    25    30    31    1
    26    31    32    1
    27    32    33    2
    28    34    33    1
    29    34    35    1
    30     4     5   ar
    31     5     6    1
    32     5     7   ar
    33     7     8   ar
    34     8     9   ar
    35     9    10   ar
    36    17    12   ar
    37    10     1   ar
    38    24    18    1
    39     9     3    1
    40    34    29    1
    41    35    31    1
    42    27    28    1
    43    37    39    1
    44    37    40    1
    45     8    11    1
@<TRIPOS>MOLECULE
*****
 40 45 0 0 0
SMALL
GASTEIGER

@<TRIPOS>ATOM
      1 C         139.4984  142.5757  161.4838 C.ar    1  UNL1        0.1669
      2 N         140.3975  142.6152  162.6839 N.ar    1  UNL1       -0.2221
      3 C         139.7925  141.7446  163.7450 C.ar    1  UNL1        0.1307
      4 C         140.2363  141.4030  165.1365 C.ar    1  UNL1        0.0777
      5 C         139.4071  140.4840  165.9839 C.ar    1  UNL1        0.0893
      6 CL        139.8510  140.1425  167.3755 Cl      1  UNL1       -0.0794
      7 C         138.1343  139.9066  165.4397 C.ar    1  UNL1        0.0863
      8 N         137.6904  140.2481  164.0482 N.ar    1  UNL1       -0.3354
      9 C         138.5196  141.1671  163.2008 C.ar    1  UNL1        0.1613
     10 N         138.3378  141.6808  161.8033 N.ar    1  UNL1       -0.2080
     11 H         136.8550  139.8691  163.6910 H       1  UNL1        0.1675
     12 C         140.3354  144.6718  160.1970 C.ar    1  UNL1        0.1428
     13 C         140.5578  145.3995  158.9043 C.ar    1  UNL1        0.0515
     14 C         140.1657  144.7590  157.6059 C.ar    1  UNL1        0.0510
     15 C         139.5512  143.3907  157.6001 C.ar    1  UNL1        0.0148
     16 C         139.3288  142.6629  158.8928 C.ar    1  UNL1        0.0074
     17 C         139.7209  143.3035  160.1912 C.ar    1  UNL1        0.0698
     18 N         140.3882  145.4867  156.3132 N.pl3   1  UNL1       -0.3046
     19 C         141.3595  144.9465  155.3060 C.3     1  UNL1        0.1081
     20 C         141.5820  145.6743  154.0134 C.3     1  UNL1        0.0938
     21 N         140.8332  146.9422  153.7280 N.3     1  UNL1       -0.2686
     22 C         141.0556  147.6699  152.4354 C.3     1  UNL1        0.0897
     23 C         139.8617  147.4825  154.7353 C.3     1  UNL1        0.0938
     24 C         139.6393  146.7547  156.0279 C.3     1  UNL1        0.1081
     25 C         139.8324  146.3375  162.1264 C.3     1  UNL1        0.2525
     26 O         140.7274  145.3125  161.4954 O.3     1  UNL1       -0.4713
     27 N         141.5093  141.9805  165.6808 N.pl3   1  UNL1       -0.3313
     28 H         141.4797  142.6170  166.4313 H       1  UNL1        0.1469
     29 C         142.8273  141.5881  165.0817 C.3     1  UNL1        0.0819
     30 C         143.4779  140.2408  165.1883 C.3     1  UNL1        0.0983
     31 C         144.7788  140.2940  164.4433 C.3     1  UNL1        0.0323
     32 C         145.6774  141.1800  163.6324 C.2     1  UNL1       -0.0304
     33 C         145.0267  142.5273  163.5258 C.2     1  UNL1       -0.0294
     34 C         143.7259  142.4740  164.2708 C.3     1  UNL1        0.0404
     35 C         143.5726  141.0938  164.8379 C.3     1  UNL1        0.0109
     36 C         142.9249  139.0493  165.9127 C.2     1  UNL1        0.2208
     37 N         143.2873  138.8098  167.3484 N.am    1  UNL1       -0.3288
     38 O         142.0095  138.0975  165.2014 O.2     1  UNL1       -0.2753
     39 H         143.8881  139.4345  167.8153 H       1  UNL1        0.1449
     40 H         142.9243  138.0278  167.8238 H       1  UNL1        0.1449
@<TRIPOS>BOND
     1    25    26    1
     2    26    12    1
     3    12    13   ar
     4    13    14   ar
     5    14    18    1
     6    18    19    1
     7    19    20    1
     8    20    21    1
     9    21    22    1
    10    21    23    1
    11    23    24    1
    12    14    15   ar
    13    15    16   ar
    14    16    17   ar
    15    17     1    1
    16     1     2   ar
    17     2     3   ar
    18     3     4   ar
    19     4    27    1
    20    29    27    1
    21    29    30    1
    22    30    36    1
    23    36    37   am
    24    36    38    2
    25    30    31    1
    26    31    32    1
    27    32    33    2
    28    34    33    1
    29    34    35    1
    30     4     5   ar
    31     5     6    1
    32     5     7   ar
    33     7     8   ar
    34     8     9   ar
    35     9    10   ar
    36    17    12   ar
    37    10     1   ar
    38    24    18    1
    39     9     3    1
    40    34    29    1
    41    35    31    1
    42    27    28    1
    43    37    39    1
    44    37    40    1
    45     8    11    1
@<TRIPOS>MOLECULE
*****
 40 45 0 0 0
SMALL
GASTEIGER

@<TRIPOS>ATOM
      1 C         139.7665  141.5248  160.1126 C.ar    1  UNL1        0.1669
      2 N         140.8803  141.1474  161.0437 N.ar    1  UNL1       -0.2221
      3 C         140.4121  139.9963  161.8838 C.ar    1  UNL1        0.1307
      4 C         141.0822  139.2091  162.9707 C.ar    1  UNL1        0.0777
      5 C         140.3490  138.0879  163.6456 C.ar    1  UNL1        0.0893
      6 CL        141.0191  137.3006  164.7326 Cl      1  UNL1       -0.0794
      7 C         138.9459  137.7540  163.2338 C.ar    1  UNL1        0.0863
      8 N         138.2758  138.5413  162.1469 N.ar    1  UNL1       -0.3354
      9 C         139.0089  139.6624  161.4719 C.ar    1  UNL1        0.1613
     10 N         138.6099  140.6071  160.3772 N.ar    1  UNL1       -0.2080
     11 H         137.3549  138.3221  161.8766 H       1  UNL1        0.1675
     12 C         139.9737  144.0499  159.5371 C.ar    1  UNL1        0.1428
     13 C         140.0100  145.1517  158.5198 C.ar    1  UNL1        0.0515
     14 C         139.8757  144.8302  157.0609 C.ar    1  UNL1        0.0510
     15 C         139.7049  143.4069  156.6191 C.ar    1  UNL1        0.0148
     16 C         139.6686  142.3052  157.6364 C.ar    1  UNL1        0.0074
     17 C         139.8029  142.6266  159.0954 C.ar    1  UNL1        0.0698
     18 N         139.9120  145.9320  156.0436 N.pl3   1  UNL1       -0.3046
     19 C         140.7006  145.7597  154.7794 C.3     1  UNL1        0.1081
     20 C         140.7370  146.8615  153.7622 C.3     1  UNL1        0.0938
     21 N         139.9849  148.1355  154.0092 N.3     1  UNL1       -0.2686
     22 C         140.0213  149.2373  152.9920 C.3     1  UNL1        0.0897
     23 C         139.1963  148.3078  155.2735 C.3     1  UNL1        0.0938
     24 C         139.1599  147.2060  156.2907 C.3     1  UNL1        0.1081
     25 C         140.0140  145.7940  161.4623 C.3     1  UNL1        0.2525
     26 O         140.1080  144.3715  160.9960 O.3     1  UNL1       -0.4713
     27 N         142.4853  139.5430  163.3826 N.pl3   1  UNL1       -0.3313
     28 H         143.2471  139.1317  162.9137 H       1  UNL1        0.1469
     29 C         142.7279  140.5034  164.5089 C.3     1  UNL1        0.0819
     30 C         143.2517  141.9028  164.3769 C.3     1  UNL1        0.0983
     31 C         143.3368  142.4974  165.7514 C.3     1  UNL1        0.0323
     32 C         143.0982  142.2272  167.2075 C.2     1  UNL1       -0.0304
     33 C         142.5744  140.8278  167.3394 C.2     1  UNL1       -0.0294
     34 C         142.4893  140.2332  165.9650 C.3     1  UNL1        0.0404
     35 C         142.9605  141.2650  164.9835 C.3     1  UNL1        0.0109
     36 C         143.6249  142.5873  163.0954 C.2     1  UNL1        0.2208
     37 N         142.5727  143.2799  162.2811 N.am    1  UNL1       -0.3288
     38 O         145.0503  142.5793  162.6283 O.2     1  UNL1       -0.2753
     39 H         141.6372  143.2852  162.5877 H       1  UNL1        0.1449
     40 H         142.8176  143.7292  161.4401 H       1  UNL1        0.1449
@<TRIPOS>BOND
     1    25    26    1
     2    26    12    1
     3    12    13   ar
     4    13    14   ar
     5    14    18    1
     6    18    19    1
     7    19    20    1
     8    20    21    1
     9    21    22    1
    10    21    23    1
    11    23    24    1
    12    14    15   ar
    13    15    16   ar
    14    16    17   ar
    15    17     1    1
    16     1     2   ar
    17     2     3   ar
    18     3     4   ar
    19     4    27    1
    20    29    27    1
    21    29    30    1
    22    30    36    1
    23    36    37   am
    24    36    38    2
    25    30    31    1
    26    31    32    1
    27    32    33    2
    28    34    33    1
    29    34    35    1
    30     4     5   ar
    31     5     6    1
    32     5     7   ar
    33     7     8   ar
    34     8     9   ar
    35     9    10   ar
    36    17    12   ar
    37    10     1   ar
    38    24    18    1
    39     9     3    1
    40    34    29    1
    41    35    31    1
    42    27    28    1
    43    37    39    1
    44    37    40    1
    45     8    11    1
