@<TRIPOS>MOLECULE
*****
 31 34 0 0 0
SMALL
GASTEIGER

@<TRIPOS>ATOM
      1 C         142.7435  144.5653  164.0188 C.3     1  UNL1        0.0344
      2 C         141.8917  143.3640  163.7338 C.ar    1  UNL1        0.0197
      3 C         141.4193  142.9188  162.3815 C.ar    1  UNL1        0.1530
      4 N         140.5984  141.6766  162.5630 N.ar    1  UNL1       -0.1607
      5 N         140.5633  141.3540  164.0274 N.ar    1  UNL1       -0.2290
      6 C         141.3626  142.3969  164.7511 C.ar    1  UNL1        0.0804
      7 C         139.8536  140.1926  164.6576 C.ar    1  UNL1        0.0933
      8 C         138.6227  140.4240  165.4831 C.ar    1  UNL1        0.0209
      9 C         137.9129  139.2626  166.1133 C.ar    1  UNL1        0.0130
     10 C         138.4340  137.8695  165.9181 C.ar    1  UNL1        0.0586
     11 CL        137.7243  136.7080  166.5483 Cl      1  UNL1       -0.0822
     12 C         139.6649  137.6381  165.0926 C.ar    1  UNL1        0.0243
     13 C         140.3746  138.7996  164.4624 C.ar    1  UNL1        0.0761
     14 CL        141.6055  138.5681  163.6370 Cl      1  UNL1       -0.0806
     15 C         141.5924  142.4614  166.2320 C.ar    1  UNL1        0.0175
     16 C         142.9420  142.1298  166.7966 C.ar    1  UNL1        0.0024
     17 C         143.1718  142.1943  168.2775 C.ar    1  UNL1        0.0114
     18 C         142.0521  142.5903  169.1937 C.ar    1  UNL1        0.0577
     19 CL        142.2819  142.6547  170.6746 Cl      1  UNL1       -0.0822
     20 C         140.7025  142.9218  168.6290 C.ar    1  UNL1        0.0114
     21 C         140.4727  142.8573  167.1482 C.ar    1  UNL1        0.0024
     22 C         141.7160  143.5968  161.0767 C.2     1  UNL1        0.2782
     23 O         142.9934  144.3638  160.9034 O.2     1  UNL1       -0.2671
     24 N         140.7352  143.5079  159.9453 N.am    1  UNL1       -0.2417
     25 H         139.8968  143.0045  160.0590 H       1  UNL1        0.1696
     26 N         141.0318  144.1859  158.6405 N.3     1  UNL1       -0.2057
     27 C         141.9643  143.5438  157.6565 C.3     1  UNL1        0.0919
     28 C         142.2608  144.2219  156.3519 C.3     1  UNL1        0.0191
     29 C         141.6250  145.5420  156.0311 C.3     1  UNL1        0.0030
     30 C         140.6926  146.1841  157.0151 C.3     1  UNL1        0.0191
     31 C         140.3960  145.5061  158.3198 C.3     1  UNL1        0.0919
@<TRIPOS>BOND
     1     1     2    1
     2     2     3   ar
     3     3    22    1
     4    22    23    2
     5    22    24   am
     6    24    26    1
     7    26    27    1
     8    27    28    1
     9    28    29    1
    10    29    30    1
    11    30    31    1
    12     3     4   ar
    13     4     5   ar
    14     5     7    1
    15     7     8   ar
    16     8     9   ar
    17     9    10   ar
    18    10    11    1
    19    10    12   ar
    20    12    13   ar
    21    13    14    1
    22     5     6   ar
    23     6    15    1
    24    15    16   ar
    25    16    17   ar
    26    17    18   ar
    27    18    19    1
    28    18    20   ar
    29    20    21   ar
    30     6     2   ar
    31    21    15   ar
    32    31    26    1
    33    13     7   ar
    34    24    25    1
@<TRIPOS>MOLECULE
*****
 31 34 0 0 0
SMALL
GASTEIGER

@<TRIPOS>ATOM
      1 C         141.1252  140.0600  169.2695 C.3     1  UNL1        0.0344
      2 C         141.9446  139.4855  168.1521 C.ar    1  UNL1        0.0197
      3 C         143.1247  138.5719  168.3034 C.ar    1  UNL1        0.1530
      4 N         143.6372  138.2455  166.9320 N.ar    1  UNL1       -0.1607
      5 N         142.7739  138.9573  165.9330 N.ar    1  UNL1       -0.2290
      6 C         141.7278  139.7237  166.6870 C.ar    1  UNL1        0.0804
      7 C         142.9294  138.9110  164.4419 C.ar    1  UNL1        0.0933
      8 C         143.9122  139.8173  163.7618 C.ar    1  UNL1        0.0209
      9 C         144.0678  139.7710  162.2706 C.ar    1  UNL1        0.0130
     10 C         143.2404  138.8182  161.4595 C.ar    1  UNL1        0.0586
     11 CL        143.3959  138.7718  159.9683 Cl      1  UNL1       -0.0822
     12 C         142.2575  137.9119  162.1396 C.ar    1  UNL1        0.0243
     13 C         142.1020  137.9583  163.6307 C.ar    1  UNL1        0.0761
     14 CL        141.1192  137.0520  164.3109 Cl      1  UNL1       -0.0806
     15 C         140.6536  140.5782  166.0822 C.ar    1  UNL1        0.0175
     16 C         140.8383  142.0642  165.9934 C.ar    1  UNL1        0.0024
     17 C         139.7641  142.9187  165.3886 C.ar    1  UNL1        0.0114
     18 C         138.5052  142.2872  164.8725 C.ar    1  UNL1        0.0577
     19 CL        137.4309  143.1418  164.2677 Cl      1  UNL1       -0.0822
     20 C         138.3204  140.8013  164.9613 C.ar    1  UNL1        0.0114
     21 C         139.3947  139.9468  165.5661 C.ar    1  UNL1        0.0024
     22 C         143.6925  138.0724  169.5989 C.2     1  UNL1        0.2782
     23 O         143.4657  138.8449  170.8645 O.2     1  UNL1       -0.2671
     24 N         144.4870  136.8005  169.6287 N.am    1  UNL1       -0.2417
     25 H         144.6358  136.2935  168.7980 H       1  UNL1        0.1696
     26 N         145.0548  136.3010  170.9242 N.3     1  UNL1       -0.2057
     27 C         146.4673  136.6353  171.3024 C.3     1  UNL1        0.0919
     28 C         147.0351  136.1358  172.5978 C.3     1  UNL1        0.0191
     29 C         146.1903  135.3021  173.5150 C.3     1  UNL1        0.0030
     30 C         144.7778  134.9679  173.1369 C.3     1  UNL1        0.0191
     31 C         144.2101  135.4673  171.8414 C.3     1  UNL1        0.0919
@<TRIPOS>BOND
     1     1     2    1
     2     2     3   ar
     3     3    22    1
     4    22    23    2
     5    22    24   am
     6    24    26    1
     7    26    27    1
     8    27    28    1
     9    28    29    1
    10    29    30    1
    11    30    31    1
    12     3     4   ar
    13     4     5   ar
    14     5     7    1
    15     7     8   ar
    16     8     9   ar
    17     9    10   ar
    18    10    11    1
    19    10    12   ar
    20    12    13   ar
    21    13    14    1
    22     5     6   ar
    23     6    15    1
    24    15    16   ar
    25    16    17   ar
    26    17    18   ar
    27    18    19    1
    28    18    20   ar
    29    20    21   ar
    30     6     2   ar
    31    21    15   ar
    32    31    26    1
    33    13     7   ar
    34    24    25    1
@<TRIPOS>MOLECULE
*****
 31 34 0 0 0
SMALL
GASTEIGER

@<TRIPOS>ATOM
      1 C         141.1399  141.9101  158.4774 C.3     1  UNL1        0.0344
      2 C         140.1617  141.4699  159.5259 C.ar    1  UNL1        0.0197
      3 C         138.6928  141.2442  159.3222 C.ar    1  UNL1        0.1530
      4 N         138.1039  140.8128  160.6325 N.ar    1  UNL1       -0.1607
      5 N         139.2088  140.7719  161.6462 N.ar    1  UNL1       -0.2290
      6 C         140.4806  141.1780  160.9623 C.ar    1  UNL1        0.0804
      7 C         139.0669  140.3917  163.0902 C.ar    1  UNL1        0.0933
      8 C         139.0992  141.4513  164.1514 C.ar    1  UNL1        0.0209
      9 C         138.9572  141.0711  165.5955 C.ar    1  UNL1        0.0130
     10 C         138.7830  139.6312  165.9783 C.ar    1  UNL1        0.0586
     11 CL        138.6410  139.2510  167.4224 Cl      1  UNL1       -0.0822
     12 C         138.7507  138.5717  164.9171 C.ar    1  UNL1        0.0243
     13 C         138.8927  138.9519  163.4731 C.ar    1  UNL1        0.0761
     14 CL        138.8604  137.8923  162.4119 Cl      1  UNL1       -0.0806
     15 C         141.8337  141.2751  161.6024 C.ar    1  UNL1        0.0175
     16 C         142.2590  142.5506  162.2675 C.ar    1  UNL1        0.0024
     17 C         143.6121  142.6477  162.9075 C.ar    1  UNL1        0.0114
     18 C         144.5399  141.4694  162.8825 C.ar    1  UNL1        0.0577
     19 CL        145.8930  141.5666  163.5225 Cl      1  UNL1       -0.0822
     20 C         144.1147  140.1940  162.2173 C.ar    1  UNL1        0.0114
     21 C         142.7616  140.0968  161.5773 C.ar    1  UNL1        0.0024
     22 C         137.9443  141.4191  158.0341 C.2     1  UNL1        0.2782
     23 O         137.8713  142.7702  157.3866 O.2     1  UNL1       -0.2671
     24 N         137.2688  140.2430  157.3934 N.am    1  UNL1       -0.2417
     25 H         137.3167  139.3562  157.8184 H       1  UNL1        0.1696
     26 N         136.5203  140.4180  156.1053 N.3     1  UNL1       -0.2057
     27 C         135.0386  140.6510  156.1246 C.3     1  UNL1        0.0919
     28 C         134.2902  140.8260  154.8365 C.3     1  UNL1        0.0191
     29 C         135.0234  140.7679  153.5292 C.3     1  UNL1        0.0030
     30 C         136.5050  140.5348  153.5099 C.3     1  UNL1        0.0191
     31 C         137.2534  140.3598  154.7980 C.3     1  UNL1        0.0919
@<TRIPOS>BOND
     1     1     2    1
     2     2     3   ar
     3     3    22    1
     4    22    23    2
     5    22    24   am
     6    24    26    1
     7    26    27    1
     8    27    28    1
     9    28    29    1
    10    29    30    1
    11    30    31    1
    12     3     4   ar
    13     4     5   ar
    14     5     7    1
    15     7     8   ar
    16     8     9   ar
    17     9    10   ar
    18    10    11    1
    19    10    12   ar
    20    12    13   ar
    21    13    14    1
    22     5     6   ar
    23     6    15    1
    24    15    16   ar
    25    16    17   ar
    26    17    18   ar
    27    18    19    1
    28    18    20   ar
    29    20    21   ar
    30     6     2   ar
    31    21    15   ar
    32    31    26    1
    33    13     7   ar
    34    24    25    1
@<TRIPOS>MOLECULE
*****
 31 34 0 0 0
SMALL
GASTEIGER

@<TRIPOS>ATOM
      1 C         141.2193  140.8729  158.3642 C.3     1  UNL1        0.0344
      2 C         140.1632  140.4713  159.3507 C.ar    1  UNL1        0.0197
      3 C         138.7204  140.2051  159.0385 C.ar    1  UNL1        0.1530
      4 N         138.0300  139.8347  160.3176 N.ar    1  UNL1       -0.1607
      5 N         139.0460  139.8720  161.4204 N.ar    1  UNL1       -0.2290
      6 C         140.3645  140.2654  160.8229 C.ar    1  UNL1        0.0804
      7 C         138.7888  139.5690  162.8667 C.ar    1  UNL1        0.0933
      8 C         139.0158  138.1835  163.3947 C.ar    1  UNL1        0.0209
      9 C         138.7586  137.8804  164.8411 C.ar    1  UNL1        0.0130
     10 C         138.2744  138.9630  165.7596 C.ar    1  UNL1        0.0586
     11 CL        138.0172  138.6601  167.2060 Cl      1  UNL1       -0.0822
     12 C         138.0474  140.3486  165.2316 C.ar    1  UNL1        0.0243
     13 C         138.3046  140.6515  163.7853 C.ar    1  UNL1        0.0761
     14 CL        138.0776  142.0371  163.2574 Cl      1  UNL1       -0.0806
     15 C         141.6572  140.4249  161.5669 C.ar    1  UNL1        0.0175
     16 C         142.6808  139.3289  161.5355 C.ar    1  UNL1        0.0024
     17 C         143.9735  139.4885  162.2795 C.ar    1  UNL1        0.0114
     18 C         144.2425  140.7440  163.0549 C.ar    1  UNL1        0.0577
     19 CL        145.5352  140.9035  163.7988 Cl      1  UNL1       -0.0822
     20 C         143.2189  141.8400  163.0863 C.ar    1  UNL1        0.0114
     21 C         141.9262  141.6805  162.3423 C.ar    1  UNL1        0.0024
     22 C         138.0804  140.2938  157.6847 C.2     1  UNL1        0.2782
     23 O         138.5040  139.3573  156.5922 O.2     1  UNL1       -0.2671
     24 N         137.0170  141.3188  157.4236 N.am    1  UNL1       -0.2417
     25 H         136.7390  141.9334  158.1406 H       1  UNL1        0.1696
     26 N         136.3770  141.4075  156.0698 N.3     1  UNL1       -0.2057
     27 C         135.0655  140.7260  155.8141 C.3     1  UNL1        0.0919
     28 C         134.4256  140.8147  154.4604 C.3     1  UNL1        0.0191
     29 C         135.0972  141.5849  153.3623 C.3     1  UNL1        0.0030
     30 C         136.4088  142.2663  153.6180 C.3     1  UNL1        0.0191
     31 C         137.0487  142.1776  154.9717 C.3     1  UNL1        0.0919
@<TRIPOS>BOND
     1     1     2    1
     2     2     3   ar
     3     3    22    1
     4    22    23    2
     5    22    24   am
     6    24    26    1
     7    26    27    1
     8    27    28    1
     9    28    29    1
    10    29    30    1
    11    30    31    1
    12     3     4   ar
    13     4     5   ar
    14     5     7    1
    15     7     8   ar
    16     8     9   ar
    17     9    10   ar
    18    10    11    1
    19    10    12   ar
    20    12    13   ar
    21    13    14    1
    22     5     6   ar
    23     6    15    1
    24    15    16   ar
    25    16    17   ar
    26    17    18   ar
    27    18    19    1
    28    18    20   ar
    29    20    21   ar
    30     6     2   ar
    31    21    15   ar
    32    31    26    1
    33    13     7   ar
    34    24    25    1
@<TRIPOS>MOLECULE
*****
 31 34 0 0 0
SMALL
GASTEIGER

@<TRIPOS>ATOM
      1 C         140.0195  139.9996  157.9874 C.3     1  UNL1        0.0344
      2 C         140.8699  139.3146  159.0158 C.ar    1  UNL1        0.0197
      3 C         141.8240  138.1855  158.7609 C.ar    1  UNL1        0.1530
      4 N         142.4593  137.8115  160.0672 N.ar    1  UNL1       -0.1607
      5 N         141.8978  138.7094  161.1296 N.ar    1  UNL1       -0.2290
      6 C         140.9155  139.6383  160.4798 C.ar    1  UNL1        0.0804
      7 C         142.2558  138.6829  162.5859 C.ar    1  UNL1        0.0933
      8 C         143.5307  139.3178  163.0565 C.ar    1  UNL1        0.0209
      9 C         143.8888  139.2914  164.5129 C.ar    1  UNL1        0.0130
     10 C         142.9718  138.6300  165.4988 C.ar    1  UNL1        0.0586
     11 CL        143.3298  138.6036  166.9552 Cl      1  UNL1       -0.0822
     12 C         141.6968  137.9952  165.0282 C.ar    1  UNL1        0.0243
     13 C         141.3389  138.0216  163.5718 C.ar    1  UNL1        0.0761
     14 CL        140.0639  137.3868  163.1012 Cl      1  UNL1       -0.0806
     15 C         140.1188  140.7039  161.1724 C.ar    1  UNL1        0.0175
     16 C         138.7236  140.4126  161.6400 C.ar    1  UNL1        0.0024
     17 C         137.9268  141.4782  162.3326 C.ar    1  UNL1        0.0114
     18 C         138.5252  142.8351  162.5575 C.ar    1  UNL1        0.0577
     19 CL        137.7285  143.9007  163.2501 Cl      1  UNL1       -0.0822
     20 C         139.9204  143.1265  162.0898 C.ar    1  UNL1        0.0114
     21 C         140.7171  142.0609  161.3973 C.ar    1  UNL1        0.0024
     22 C         142.0952  137.5433  157.4327 C.2     1  UNL1        0.2782
     23 O         143.4449  137.6834  156.7935 O.2     1  UNL1       -0.2671
     24 N         141.0167  136.7609  156.7438 N.am    1  UNL1       -0.2417
     25 H         140.1308  136.6689  157.1633 H       1  UNL1        0.1696
     26 N         141.2878  136.1187  155.4156 N.3     1  UNL1       -0.2057
     27 C         141.8514  134.7299  155.3551 C.3     1  UNL1        0.0919
     28 C         142.1226  134.0877  154.0270 C.3     1  UNL1        0.0191
     29 C         141.8301  134.8343  152.7593 C.3     1  UNL1        0.0030
     30 C         141.2666  136.2231  152.8197 C.3     1  UNL1        0.0191
     31 C         140.9954  136.8652  154.1478 C.3     1  UNL1        0.0919
@<TRIPOS>BOND
     1     1     2    1
     2     2     3   ar
     3     3    22    1
     4    22    23    2
     5    22    24   am
     6    24    26    1
     7    26    27    1
     8    27    28    1
     9    28    29    1
    10    29    30    1
    11    30    31    1
    12     3     4   ar
    13     4     5   ar
    14     5     7    1
    15     7     8   ar
    16     8     9   ar
    17     9    10   ar
    18    10    11    1
    19    10    12   ar
    20    12    13   ar
    21    13    14    1
    22     5     6   ar
    23     6    15    1
    24    15    16   ar
    25    16    17   ar
    26    17    18   ar
    27    18    19    1
    28    18    20   ar
    29    20    21   ar
    30     6     2   ar
    31    21    15   ar
    32    31    26    1
    33    13     7   ar
    34    24    25    1
@<TRIPOS>MOLECULE
*****
 31 34 0 0 0
SMALL
GASTEIGER

@<TRIPOS>ATOM
      1 C         143.1643  140.4554  159.4265 C.3     1  UNL1        0.0344
      2 C         142.0221  139.8113  160.1548 C.ar    1  UNL1        0.0197
      3 C         141.0291  138.8534  159.5663 C.ar    1  UNL1        0.1530
      4 N         140.0656  138.4622  160.6473 N.ar    1  UNL1       -0.1607
      5 N         140.4630  139.1782  161.9040 N.ar    1  UNL1       -0.2290
      6 C         141.6722  140.0121  161.5996 C.ar    1  UNL1        0.0804
      7 C         139.7726  139.0781  163.2318 C.ar    1  UNL1        0.0933
      8 C         138.8008  140.1399  163.6538 C.ar    1  UNL1        0.0209
      9 C         138.1103  140.0398  164.9816 C.ar    1  UNL1        0.0130
     10 C         138.3916  138.8778  165.8875 C.ar    1  UNL1        0.0586
     11 CL        137.7012  138.7776  167.2154 Cl      1  UNL1       -0.0822
     12 C         139.3634  137.8159  165.4655 C.ar    1  UNL1        0.0243
     13 C         140.0539  137.9161  164.1377 C.ar    1  UNL1        0.0761
     14 CL        141.0256  136.8542  163.7157 Cl      1  UNL1       -0.0806
     15 C         142.4032  140.8922  162.5697 C.ar    1  UNL1        0.0175
     16 C         141.9160  142.2865  162.8317 C.ar    1  UNL1        0.0024
     17 C         142.6470  143.1665  163.8018 C.ar    1  UNL1        0.0114
     18 C         143.8652  142.6523  164.5099 C.ar    1  UNL1        0.0577
     19 CL        144.5962  143.5324  165.4800 Cl      1  UNL1       -0.0822
     20 C         144.3525  141.2581  164.2479 C.ar    1  UNL1        0.0114
     21 C         143.6215  140.3780  163.2778 C.ar    1  UNL1        0.0024
     22 C         141.0040  138.3714  158.1460 C.2     1  UNL1        0.2782
     23 O         139.8659  138.7502  157.2454 O.2     1  UNL1       -0.2671
     24 N         142.1171  137.5106  157.6264 N.am    1  UNL1       -0.2417
     25 H         142.8641  137.2620  158.2175 H       1  UNL1        0.1696
     26 N         142.0921  137.0286  156.2062 N.3     1  UNL1       -0.2057
     27 C         141.7397  135.6022  155.9044 C.3     1  UNL1        0.0919
     28 C         141.7147  135.1202  154.4841 C.3     1  UNL1        0.0191
     29 C         142.0420  136.0647  153.3657 C.3     1  UNL1        0.0030
     30 C         142.3944  137.4911  153.6675 C.3     1  UNL1        0.0191
     31 C         142.4194  137.9730  155.0878 C.3     1  UNL1        0.0919
@<TRIPOS>BOND
     1     1     2    1
     2     2     3   ar
     3     3    22    1
     4    22    23    2
     5    22    24   am
     6    24    26    1
     7    26    27    1
     8    27    28    1
     9    28    29    1
    10    29    30    1
    11    30    31    1
    12     3     4   ar
    13     4     5   ar
    14     5     7    1
    15     7     8   ar
    16     8     9   ar
    17     9    10   ar
    18    10    11    1
    19    10    12   ar
    20    12    13   ar
    21    13    14    1
    22     5     6   ar
    23     6    15    1
    24    15    16   ar
    25    16    17   ar
    26    17    18   ar
    27    18    19    1
    28    18    20   ar
    29    20    21   ar
    30     6     2   ar
    31    21    15   ar
    32    31    26    1
    33    13     7   ar
    34    24    25    1
@<TRIPOS>MOLECULE
*****
 31 34 0 0 0
SMALL
GASTEIGER

@<TRIPOS>ATOM
      1 C         139.8714  143.2605  158.2957 C.3     1  UNL1        0.0344
      2 C         139.2030  142.2358  159.1635 C.ar    1  UNL1        0.0197
      3 C         138.1410  141.2697  158.7289 C.ar    1  UNL1        0.1530
      4 N         137.7609  140.4341  159.9151 N.ar    1  UNL1       -0.1607
      5 N         138.5878  140.8837  161.0830 N.ar    1  UNL1       -0.2290
      6 C         139.4791  141.9972  160.6185 C.ar    1  UNL1        0.0804
      7 C         138.5331  140.3189  162.4714 C.ar    1  UNL1        0.0933
      8 C         138.1087  141.1876  163.6183 C.ar    1  UNL1        0.0209
      9 C         138.0540  140.6230  165.0068 C.ar    1  UNL1        0.0130
     10 C         138.4237  139.1894  165.2486 C.ar    1  UNL1        0.0586
     11 CL        138.3690  138.6246  166.6371 Cl      1  UNL1       -0.0822
     12 C         138.8481  138.3207  164.1017 C.ar    1  UNL1        0.0243
     13 C         138.9028  138.8854  162.7133 C.ar    1  UNL1        0.0761
     14 CL        139.3272  138.0167  161.5664 Cl      1  UNL1       -0.0806
     15 C         140.4722  142.7415  161.4611 C.ar    1  UNL1        0.0175
     16 C         141.8234  142.1475  161.7284 C.ar    1  UNL1        0.0024
     17 C         142.8164  142.8918  162.5710 C.ar    1  UNL1        0.0114
     18 C         142.4583  144.2300  163.1462 C.ar    1  UNL1        0.0577
     19 CL        143.4513  144.9742  163.9887 Cl      1  UNL1       -0.0822
     20 C         141.1071  144.8240  162.8788 C.ar    1  UNL1        0.0114
     21 C         140.1140  144.0797  162.0363 C.ar    1  UNL1        0.0024
     22 C         137.5611  141.1588  157.3499 C.2     1  UNL1        0.2782
     23 O         137.8255  139.9367  156.5212 O.2     1  UNL1       -0.2671
     24 N         136.7168  142.2698  156.7997 N.am    1  UNL1       -0.2417
     25 H         136.5433  143.0718  157.3437 H       1  UNL1        0.1696
     26 N         136.1369  142.1589  155.4208 N.3     1  UNL1       -0.2057
     27 C         134.9126  141.3244  155.1869 C.3     1  UNL1        0.0919
     28 C         134.3327  141.2135  153.8080 C.3     1  UNL1        0.0191
     29 C         134.9771  141.9371  152.6630 C.3     1  UNL1        0.0030
     30 C         136.2014  142.7716  152.8968 C.3     1  UNL1        0.0191
     31 C         136.7813  142.8825  154.2757 C.3     1  UNL1        0.0919
@<TRIPOS>BOND
     1     1     2    1
     2     2     3   ar
     3     3    22    1
     4    22    23    2
     5    22    24   am
     6    24    26    1
     7    26    27    1
     8    27    28    1
     9    28    29    1
    10    29    30    1
    11    30    31    1
    12     3     4   ar
    13     4     5   ar
    14     5     7    1
    15     7     8   ar
    16     8     9   ar
    17     9    10   ar
    18    10    11    1
    19    10    12   ar
    20    12    13   ar
    21    13    14    1
    22     5     6   ar
    23     6    15    1
    24    15    16   ar
    25    16    17   ar
    26    17    18   ar
    27    18    19    1
    28    18    20   ar
    29    20    21   ar
    30     6     2   ar
    31    21    15   ar
    32    31    26    1
    33    13     7   ar
    34    24    25    1
@<TRIPOS>MOLECULE
*****
 31 34 0 0 0
SMALL
GASTEIGER

@<TRIPOS>ATOM
      1 C         143.0776  140.3188  159.2398 C.3     1  UNL1        0.0344
      2 C         141.9328  139.6862  159.9742 C.ar    1  UNL1        0.0197
      3 C         140.9197  138.7481  159.3879 C.ar    1  UNL1        0.1530
      4 N         139.9609  138.3628  160.4752 N.ar    1  UNL1       -0.1607
      5 N         140.3814  139.0626  161.7335 N.ar    1  UNL1       -0.2290
      6 C         141.6001  139.8805  161.4239 C.ar    1  UNL1        0.0804
      7 C         139.7025  138.9621  163.0672 C.ar    1  UNL1        0.0933
      8 C         139.9237  137.7570  163.9325 C.ar    1  UNL1        0.0209
      9 C         139.2447  137.6565  165.2663 C.ar    1  UNL1        0.0130
     10 C         138.3446  138.7612  165.7348 C.ar    1  UNL1        0.0586
     11 CL        137.6656  138.6608  167.0685 Cl      1  UNL1       -0.0822
     12 C         138.1234  139.9663  164.8694 C.ar    1  UNL1        0.0243
     13 C         138.8023  140.0668  163.5358 C.ar    1  UNL1        0.0761
     14 CL        138.5811  141.2719  162.6704 Cl      1  UNL1       -0.0806
     15 C         142.3538  140.7416  162.3937 C.ar    1  UNL1        0.0175
     16 C         143.5276  140.1800  163.1401 C.ar    1  UNL1        0.0024
     17 C         144.2813  141.0411  164.1099 C.ar    1  UNL1        0.0114
     18 C         143.8612  142.4636  164.3333 C.ar    1  UNL1        0.0577
     19 CL        144.6149  143.3247  165.3031 Cl      1  UNL1       -0.0822
     20 C         142.6875  143.0251  163.5869 C.ar    1  UNL1        0.0114
     21 C         141.9338  142.1641  162.6171 C.ar    1  UNL1        0.0024
     22 C         140.8735  138.2781  157.9642 C.2     1  UNL1        0.2782
     23 O         139.7198  138.6605  157.0851 O.2     1  UNL1       -0.2671
     24 N         141.9810  137.4256  157.4195 N.am    1  UNL1       -0.2417
     25 H         142.7382  137.1747  157.9964 H       1  UNL1        0.1696
     26 N         141.9348  136.9555  155.9958 N.3     1  UNL1       -0.2057
     27 C         141.4938  135.5567  155.6817 C.3     1  UNL1        0.0919
     28 C         141.4476  135.0867  154.2581 C.3     1  UNL1        0.0191
     29 C         141.8425  136.0155  153.1484 C.3     1  UNL1        0.0030
     30 C         142.2836  137.4144  153.4624 C.3     1  UNL1        0.0191
     31 C         142.3297  137.8844  154.8861 C.3     1  UNL1        0.0919
@<TRIPOS>BOND
     1     1     2    1
     2     2     3   ar
     3     3    22    1
     4    22    23    2
     5    22    24   am
     6    24    26    1
     7    26    27    1
     8    27    28    1
     9    28    29    1
    10    29    30    1
    11    30    31    1
    12     3     4   ar
    13     4     5   ar
    14     5     7    1
    15     7     8   ar
    16     8     9   ar
    17     9    10   ar
    18    10    11    1
    19    10    12   ar
    20    12    13   ar
    21    13    14    1
    22     5     6   ar
    23     6    15    1
    24    15    16   ar
    25    16    17   ar
    26    17    18   ar
    27    18    19    1
    28    18    20   ar
    29    20    21   ar
    30     6     2   ar
    31    21    15   ar
    32    31    26    1
    33    13     7   ar
    34    24    25    1
@<TRIPOS>MOLECULE
*****
 31 34 0 0 0
SMALL
GASTEIGER

@<TRIPOS>ATOM
      1 C         140.2462  138.9637  159.1229 C.3     1  UNL1        0.0344
      2 C         139.6227  140.2105  159.6768 C.ar    1  UNL1        0.0197
      3 C         138.7531  141.1718  158.9220 C.ar    1  UNL1        0.1530
      4 N         138.3523  142.2703  159.8614 N.ar    1  UNL1       -0.1607
      5 N         138.9743  141.9881  161.1969 N.ar    1  UNL1       -0.2290
      6 C         139.7594  140.7150  161.0828 C.ar    1  UNL1        0.0804
      7 C         138.8354  142.8308  162.4299 C.ar    1  UNL1        0.0933
      8 C         137.6709  142.6241  163.3524 C.ar    1  UNL1        0.0209
      9 C         137.5319  143.4669  164.5855 C.ar    1  UNL1        0.0130
     10 C         138.5577  144.5164  164.8960 C.ar    1  UNL1        0.0586
     11 CL        138.4189  145.3592  166.1291 Cl      1  UNL1       -0.0822
     12 C         139.7223  144.7231  163.9735 C.ar    1  UNL1        0.0243
     13 C         139.8611  143.8804  162.7405 C.ar    1  UNL1        0.0761
     14 CL        141.0256  144.0871  161.8179 Cl      1  UNL1       -0.0806
     15 C         140.5436  140.0613  162.1818 C.ar    1  UNL1        0.0175
     16 C         141.9027  140.5818  162.5453 C.ar    1  UNL1        0.0024
     17 C         142.6868  139.9281  163.6443 C.ar    1  UNL1        0.0114
     18 C         142.1120  138.7540  164.3797 C.ar    1  UNL1        0.0577
     19 CL        142.8961  138.1003  165.4787 Cl      1  UNL1       -0.0822
     20 C         140.7529  138.2335  164.0162 C.ar    1  UNL1        0.0114
     21 C         139.9687  138.8872  162.9172 C.ar    1  UNL1        0.0024
     22 C         138.3542  141.0549  157.4806 C.2     1  UNL1        0.2782
     23 O         139.1685  141.7341  156.4197 O.2     1  UNL1       -0.2671
     24 N         137.1412  140.2588  157.1003 N.am    1  UNL1       -0.2417
     25 H         136.6068  139.8130  157.7967 H       1  UNL1        0.1696
     26 N         136.7423  140.1419  155.6590 N.3     1  UNL1       -0.2057
     27 C         135.5759  140.9276  155.1375 C.3     1  UNL1        0.0919
     28 C         135.1771  140.8107  153.6962 C.3     1  UNL1        0.0191
     29 C         135.9448  139.9080  152.7765 C.3     1  UNL1        0.0030
     30 C         137.1112  139.1223  153.2980 C.3     1  UNL1        0.0191
     31 C         137.5100  139.2392  154.7392 C.3     1  UNL1        0.0919
@<TRIPOS>BOND
     1     1     2    1
     2     2     3   ar
     3     3    22    1
     4    22    23    2
     5    22    24   am
     6    24    26    1
     7    26    27    1
     8    27    28    1
     9    28    29    1
    10    29    30    1
    11    30    31    1
    12     3     4   ar
    13     4     5   ar
    14     5     7    1
    15     7     8   ar
    16     8     9   ar
    17     9    10   ar
    18    10    11    1
    19    10    12   ar
    20    12    13   ar
    21    13    14    1
    22     5     6   ar
    23     6    15    1
    24    15    16   ar
    25    16    17   ar
    26    17    18   ar
    27    18    19    1
    28    18    20   ar
    29    20    21   ar
    30     6     2   ar
    31    21    15   ar
    32    31    26    1
    33    13     7   ar
    34    24    25    1
