@<TRIPOS>MOLECULE
*****
 25 27 0 0 0
SMALL
GASTEIGER

@<TRIPOS>ATOM
      1 C         139.2449  140.5797  169.6028 C.ar    1  UNL1       -0.0001
      2 C         139.7225  141.9720  169.8916 C.ar    1  UNL1       -0.0003
      3 C         140.5150  142.7217  168.8621 C.ar    1  UNL1       -0.0029
      4 C         140.8299  142.0792  167.5438 C.ar    1  UNL1       -0.0047
      5 C         140.3523  140.6869  167.2550 C.ar    1  UNL1       -0.0047
      6 C         139.5598  139.9372  168.2845 C.ar    1  UNL1       -0.0029
      7 C         140.8128  140.3155  165.8766 C.3     1  UNL1        0.1205
      8 N         141.5750  141.4782  165.3135 N.am    1  UNL1       -0.2678
      9 C         142.2144  141.5401  163.9579 C.2     1  UNL1        0.2510
     10 O         142.9476  142.7768  163.5303 O.2     1  UNL1       -0.2698
     11 C         141.5855  142.5682  166.3439 C.3     1  UNL1        0.1205
     12 C         142.1205  140.3653  163.0301 C.ar    1  UNL1        0.0727
     13 C         143.1367  139.2647  163.1083 C.ar    1  UNL1        0.0077
     14 C         143.0428  138.0899  162.1804 C.ar    1  UNL1        0.0208
     15 C         141.9326  138.0156  161.1743 C.ar    1  UNL1        0.0989
     16 N         140.9165  139.1162  161.0961 N.ar    1  UNL1       -0.2422
     17 C         141.0104  140.2910  162.0240 C.ar    1  UNL1        0.1034
     18 C         137.1721  139.1511  170.2451 C.2     1  UNL1        0.0598
     19 C         138.4524  139.8300  170.6323 C.2     1  UNL1        0.0047
     20 O         136.5018  136.9098  171.3751 O.2     1  UNL1       -0.2681
     21 C         136.3796  138.4014  171.2746 C.2     1  UNL1        0.2679
     22 N         135.4649  139.1433  172.2036 N.am    1  UNL1       -0.1934
     23 O         134.6724  138.3936  173.2331 O.3     1  UNL1       -0.2949
     24 H         135.3848  140.1223  172.1376 H       1  UNL1        0.1825
     25 H         134.8666  137.4458  173.1634 H       1  UNL1        0.2414
@<TRIPOS>BOND
     1    20    21    2
     2    21    18    1
     3    18    19    2
     4    19     1    1
     5     1     2   ar
     6     2     3   ar
     7     3     4   ar
     8     4     5   ar
     9     5     6   ar
    10     5     7    1
    11     7     8    1
    12     8     9   am
    13     9    10    2
    14     9    12    1
    15    12    13   ar
    16    13    14   ar
    17    14    15   ar
    18    15    16   ar
    19    16    17   ar
    20     8    11    1
    21    21    22   am
    22    22    23    1
    23     6     1   ar
    24    17    12   ar
    25    11     4    1
    26    22    24    1
    27    23    25    1
@<TRIPOS>MOLECULE
*****
 25 27 0 0 0
SMALL
GASTEIGER

@<TRIPOS>ATOM
      1 C         139.8859  140.2675  167.9872 C.ar    1  UNL1       -0.0001
      2 C         138.5864  139.5187  167.9635 C.ar    1  UNL1       -0.0003
      3 C         138.1251  138.8569  166.6989 C.ar    1  UNL1       -0.0029
      4 C         138.9632  138.9439  165.4580 C.ar    1  UNL1       -0.0047
      5 C         140.2626  139.6927  165.4816 C.ar    1  UNL1       -0.0047
      6 C         140.7240  140.3545  166.7462 C.ar    1  UNL1       -0.0029
      7 C         140.8711  139.6086  164.1131 C.3     1  UNL1        0.1205
      8 N         139.9477  138.8078  163.2437 N.am    1  UNL1       -0.2678
      9 C         140.1651  138.4759  161.7971 C.2     1  UNL1        0.2510
     10 O         139.1485  137.6615  161.0534 O.2     1  UNL1       -0.2698
     11 C         138.7685  138.3970  164.0749 C.3     1  UNL1        0.1205
     12 C         141.3993  138.9585  161.0943 C.ar    1  UNL1        0.0727
     13 C         141.4190  140.3187  160.4622 C.ar    1  UNL1        0.0077
     14 C         142.6532  140.8013  159.7594 C.ar    1  UNL1        0.0208
     15 C         143.8676  139.9236  159.6886 C.ar    1  UNL1        0.0989
     16 N         143.8479  138.5635  160.3207 N.ar    1  UNL1       -0.2422
     17 C         142.6137  138.0809  161.0236 C.ar    1  UNL1        0.1034
     18 C         141.5443  141.8329  169.2317 C.2     1  UNL1        0.0598
     19 C         140.3473  140.9293  169.2518 C.2     1  UNL1        0.0047
     20 O         141.3732  142.1312  171.8069 O.2     1  UNL1       -0.2681
     21 C         142.0057  142.4947  170.4963 C.2     1  UNL1        0.2679
     22 N         143.0997  143.5200  170.4502 N.am    1  UNL1       -0.1934
     23 O         143.5611  144.1818  171.7148 O.3     1  UNL1       -0.2949
     24 H         143.5148  143.7586  169.5900 H       1  UNL1        0.1825
     25 H         143.0528  143.8356  172.4650 H       1  UNL1        0.2414
@<TRIPOS>BOND
     1    20    21    2
     2    21    18    1
     3    18    19    2
     4    19     1    1
     5     1     2   ar
     6     2     3   ar
     7     3     4   ar
     8     4     5   ar
     9     5     6   ar
    10     5     7    1
    11     7     8    1
    12     8     9   am
    13     9    10    2
    14     9    12    1
    15    12    13   ar
    16    13    14   ar
    17    14    15   ar
    18    15    16   ar
    19    16    17   ar
    20     8    11    1
    21    21    22   am
    22    22    23    1
    23     6     1   ar
    24    17    12   ar
    25    11     4    1
    26    22    24    1
    27    23    25    1
@<TRIPOS>MOLECULE
*****
 25 27 0 0 0
SMALL
GASTEIGER

@<TRIPOS>ATOM
      1 C         142.2096  139.4635  169.6789 C.ar    1  UNL1       -0.0001
      2 C         140.7559  139.6973  169.9650 C.ar    1  UNL1       -0.0003
      3 C         139.9049  140.4328  168.9726 C.ar    1  UNL1       -0.0029
      4 C         140.5077  140.9344  167.6940 C.ar    1  UNL1       -0.0047
      5 C         141.9614  140.7006  167.4078 C.ar    1  UNL1       -0.0047
      6 C         142.8124  139.9652  168.4002 C.ar    1  UNL1       -0.0029
      7 C         142.2745  141.3077  166.0722 C.3     1  UNL1        0.1205
      8 N         141.0142  141.9167  165.5331 N.am    1  UNL1       -0.2678
      9 C         140.8709  142.6310  164.2218 C.2     1  UNL1        0.2510
     10 O         139.5403  143.1906  163.8141 O.2     1  UNL1       -0.2698
     11 C         139.9222  141.6860  166.5353 C.3     1  UNL1        0.1205
     12 C         142.0582  142.7856  163.3183 C.ar    1  UNL1        0.0727
     13 C         142.9717  143.9651  163.4755 C.ar    1  UNL1        0.0077
     14 C         144.1590  144.1197  162.5720 C.ar    1  UNL1        0.0208
     15 C         144.4330  143.0950  161.5114 C.ar    1  UNL1        0.0989
     16 N         143.5195  141.9156  161.3543 N.ar    1  UNL1       -0.2422
     17 C         142.3322  141.7609  162.2578 C.ar    1  UNL1        0.1034
     18 C         143.5700  137.3543  170.3500 C.2     1  UNL1        0.0598
     19 C         143.0606  138.7280  170.6713 C.2     1  UNL1        0.0047
     20 O         145.7453  137.1856  171.7605 O.2     1  UNL1       -0.2681
     21 C         144.4209  136.6188  171.3425 C.2     1  UNL1        0.2679
     22 N         143.9475  135.3165  171.9169 N.am    1  UNL1       -0.1934
     23 O         144.7984  134.5810  172.9094 O.3     1  UNL1       -0.2949
     24 H         143.0782  134.9445  171.6426 H       1  UNL1        0.1825
     25 H         145.6147  135.0804  173.0683 H       1  UNL1        0.2414
@<TRIPOS>BOND
     1    20    21    2
     2    21    18    1
     3    18    19    2
     4    19     1    1
     5     1     2   ar
     6     2     3   ar
     7     3     4   ar
     8     4     5   ar
     9     5     6   ar
    10     5     7    1
    11     7     8    1
    12     8     9   am
    13     9    10    2
    14     9    12    1
    15    12    13   ar
    16    13    14   ar
    17    14    15   ar
    18    15    16   ar
    19    16    17   ar
    20     8    11    1
    21    21    22   am
    22    22    23    1
    23     6     1   ar
    24    17    12   ar
    25    11     4    1
    26    22    24    1
    27    23    25    1
@<TRIPOS>MOLECULE
*****
 25 27 0 0 0
SMALL
GASTEIGER

@<TRIPOS>ATOM
      1 C         139.9559  140.5173  167.4108 C.ar    1  UNL1       -0.0001
      2 C         138.8704  139.4848  167.4853 C.ar    1  UNL1       -0.0003
      3 C         138.1226  139.0919  166.2458 C.ar    1  UNL1       -0.0029
      4 C         138.4603  139.7314  164.9317 C.ar    1  UNL1       -0.0047
      5 C         139.5458  140.7639  164.8572 C.ar    1  UNL1       -0.0047
      6 C         140.2936  141.1568  166.0967 C.ar    1  UNL1       -0.0029
      7 C         139.6561  141.2185  163.4319 C.3     1  UNL1        0.1205
      8 N         138.6388  140.4669  162.6257 N.am    1  UNL1       -0.2678
      9 C         138.4020  140.6093  161.1513 C.2     1  UNL1        0.2510
     10 O         137.3436  139.7863  160.4787 O.2     1  UNL1       -0.2698
     11 C         137.8997  139.5478  163.5526 C.3     1  UNL1        0.1205
     12 C         139.2237  141.5747  160.3495 C.ar    1  UNL1        0.0727
     13 C         140.4955  141.1171  159.6988 C.ar    1  UNL1        0.0077
     14 C         141.3172  142.0825  158.8971 C.ar    1  UNL1        0.0208
     15 C         140.8672  143.5054  158.7460 C.ar    1  UNL1        0.0989
     16 N         139.5955  143.9629  159.3967 N.ar    1  UNL1       -0.2422
     17 C         138.7738  142.9976  160.1985 C.ar    1  UNL1        0.1034
     18 C         140.5702  142.3002  169.1978 C.2     1  UNL1        0.0598
     19 C         140.7037  140.9102  168.6503 C.2     1  UNL1        0.0047
     20 O         140.7946  142.2973  171.7862 O.2     1  UNL1       -0.2681
     21 C         141.3180  142.6932  170.4373 C.2     1  UNL1        0.2679
     22 N         142.5892  143.4820  170.3280 N.am    1  UNL1       -0.1934
     23 O         143.3370  143.8749  171.5675 O.3     1  UNL1       -0.2949
     24 H         142.9327  143.7418  169.4427 H       1  UNL1        0.1825
     25 H         142.8665  143.5426  172.3480 H       1  UNL1        0.2414
@<TRIPOS>BOND
     1    20    21    2
     2    21    18    1
     3    18    19    2
     4    19     1    1
     5     1     2   ar
     6     2     3   ar
     7     3     4   ar
     8     4     5   ar
     9     5     6   ar
    10     5     7    1
    11     7     8    1
    12     8     9   am
    13     9    10    2
    14     9    12    1
    15    12    13   ar
    16    13    14   ar
    17    14    15   ar
    18    15    16   ar
    19    16    17   ar
    20     8    11    1
    21    21    22   am
    22    22    23    1
    23     6     1   ar
    24    17    12   ar
    25    11     4    1
    26    22    24    1
    27    23    25    1
@<TRIPOS>MOLECULE
*****
 25 27 0 0 0
SMALL
GASTEIGER

@<TRIPOS>ATOM
      1 C         138.9328  139.3872  166.5002 C.ar    1  UNL1       -0.0001
      2 C         138.5944  138.0165  165.9936 C.ar    1  UNL1       -0.0003
      3 C         138.6608  137.7224  164.5242 C.ar    1  UNL1       -0.0029
      4 C         139.0655  138.7990  163.5614 C.ar    1  UNL1       -0.0047
      5 C         139.4038  140.1697  164.0680 C.ar    1  UNL1       -0.0047
      6 C         139.3375  140.4638  165.5374 C.ar    1  UNL1       -0.0029
      7 C         139.7671  141.0231  162.8890 C.3     1  UNL1        0.1205
      8 N         139.6532  140.1798  161.6538 N.am    1  UNL1       -0.2678
      9 C         139.9252  140.6316  160.2495 C.2     1  UNL1        0.2510
     10 O         139.7681  139.6704  159.1087 O.2     1  UNL1       -0.2698
     11 C         139.2196  138.8052  162.0694 C.3     1  UNL1        0.1205
     12 C         140.3542  142.0446  159.9861 C.ar    1  UNL1        0.0727
     13 C         141.8122  142.3751  159.8626 C.ar    1  UNL1        0.0077
     14 C         142.2412  143.7881  159.5992 C.ar    1  UNL1        0.0208
     15 C         141.2122  144.8706  159.4593 C.ar    1  UNL1        0.0989
     16 N         139.7543  144.5401  159.5829 N.ar    1  UNL1       -0.2422
     17 C         139.3253  143.1271  159.8463 C.ar    1  UNL1        0.1034
     18 C         140.0580  140.2600  168.6732 C.2     1  UNL1        0.0598
     19 C         138.8664  139.6812  167.9696 C.2     1  UNL1        0.0047
     20 O         139.3841  139.5539  171.0810 O.2     1  UNL1       -0.2681
     21 C         139.9917  140.5540  170.1426 C.2     1  UNL1        0.2679
     22 N         140.5329  141.8483  170.6737 N.am    1  UNL1       -0.1934
     23 O         140.4666  142.1424  172.1431 O.3     1  UNL1       -0.2949
     24 H         140.9317  142.5047  170.0578 H       1  UNL1        0.1825
     25 H         140.0479  141.3981  172.6032 H       1  UNL1        0.2414
@<TRIPOS>BOND
     1    20    21    2
     2    21    18    1
     3    18    19    2
     4    19     1    1
     5     1     2   ar
     6     2     3   ar
     7     3     4   ar
     8     4     5   ar
     9     5     6   ar
    10     5     7    1
    11     7     8    1
    12     8     9   am
    13     9    10    2
    14     9    12    1
    15    12    13   ar
    16    13    14   ar
    17    14    15   ar
    18    15    16   ar
    19    16    17   ar
    20     8    11    1
    21    21    22   am
    22    22    23    1
    23     6     1   ar
    24    17    12   ar
    25    11     4    1
    26    22    24    1
    27    23    25    1
@<TRIPOS>MOLECULE
*****
 25 27 0 0 0
SMALL
GASTEIGER

@<TRIPOS>ATOM
      1 C         139.3109  142.3813  161.8468 C.ar    1  UNL1       -0.0001
      2 C         138.2511  141.3207  161.8020 C.ar    1  UNL1       -0.0003
      3 C         137.9156  140.5430  163.0400 C.ar    1  UNL1       -0.0029
      4 C         138.6398  140.8259  164.3227 C.ar    1  UNL1       -0.0047
      5 C         139.6995  141.8864  164.3675 C.ar    1  UNL1       -0.0047
      6 C         140.0351  142.6642  163.1295 C.ar    1  UNL1       -0.0029
      7 C         140.2405  141.9425  165.7655 C.3     1  UNL1        0.1205
      8 N         139.5150  140.9165  166.5847 N.am    1  UNL1       -0.2678
      9 C         139.7394  140.6308  168.0401 C.2     1  UNL1        0.2510
     10 O         138.9338  139.5695  168.7289 O.2     1  UNL1       -0.2698
     11 C         138.5257  140.2264  165.6930 C.3     1  UNL1        0.1205
     12 C         140.7694  141.4065  168.8065 C.ar    1  UNL1        0.0727
     13 C         142.2014  140.9597  168.8022 C.ar    1  UNL1        0.0077
     14 C         143.2314  141.7353  169.5686 C.ar    1  UNL1        0.0208
     15 C         142.8294  142.9578  170.3394 C.ar    1  UNL1        0.0989
     16 N         141.3975  143.4045  170.3438 N.ar    1  UNL1       -0.2422
     17 C         140.3675  142.6289  169.5773 C.ar    1  UNL1        0.1034
     18 C         140.4880  144.3969  160.7058 C.2     1  UNL1        0.0598
     19 C         139.6464  143.1590  160.6088 C.2     1  UNL1        0.0047
     20 O         139.7590  145.9662  158.7679 O.2     1  UNL1       -0.2681
     21 C         140.8235  145.1746  159.4678 C.2     1  UNL1        0.2679
     22 N         142.2237  145.1606  158.9299 N.am    1  UNL1       -0.1934
     23 O         142.5593  145.9383  157.6919 O.3     1  UNL1       -0.2949
     24 H         142.9224  144.6410  159.3893 H       1  UNL1        0.1825
     25 H         141.7640  146.3896  157.3680 H       1  UNL1        0.2414
@<TRIPOS>BOND
     1    20    21    2
     2    21    18    1
     3    18    19    2
     4    19     1    1
     5     1     2   ar
     6     2     3   ar
     7     3     4   ar
     8     4     5   ar
     9     5     6   ar
    10     5     7    1
    11     7     8    1
    12     8     9   am
    13     9    10    2
    14     9    12    1
    15    12    13   ar
    16    13    14   ar
    17    14    15   ar
    18    15    16   ar
    19    16    17   ar
    20     8    11    1
    21    21    22   am
    22    22    23    1
    23     6     1   ar
    24    17    12   ar
    25    11     4    1
    26    22    24    1
    27    23    25    1
@<TRIPOS>MOLECULE
*****
 25 27 0 0 0
SMALL
GASTEIGER

@<TRIPOS>ATOM
      1 C         140.5347  139.0421  162.4203 C.ar    1  UNL1       -0.0001
      2 C         139.3129  138.1917  162.6047 C.ar    1  UNL1       -0.0003
      3 C         138.6554  138.1054  163.9502 C.ar    1  UNL1       -0.0029
      4 C         139.2197  138.8693  165.1111 C.ar    1  UNL1       -0.0047
      5 C         140.4415  139.7197  164.9267 C.ar    1  UNL1       -0.0047
      6 C         141.0990  139.8060  163.5812 C.ar    1  UNL1       -0.0029
      7 C         140.7679  140.3546  166.2459 C.3     1  UNL1        0.1205
      8 N         139.7478  139.8966  167.2457 N.am    1  UNL1       -0.2678
      9 C         139.6939  140.2879  168.6929 C.2     1  UNL1        0.2510
     10 O         138.6089  139.7471  169.5761 O.2     1  UNL1       -0.2698
     11 C         138.7909  138.9787  166.5444 C.3     1  UNL1        0.1205
     12 C         140.7251  141.2199  169.2567 C.ar    1  UNL1        0.0727
     13 C         142.1340  140.7461  169.4585 C.ar    1  UNL1        0.0077
     14 C         143.1652  141.6781  170.0223 C.ar    1  UNL1        0.0208
     15 C         142.7876  143.0840  170.3842 C.ar    1  UNL1        0.0989
     16 N         141.3788  143.5578  170.1824 N.ar    1  UNL1       -0.2422
     17 C         140.3476  142.6257  169.6186 C.ar    1  UNL1        0.1034
     18 C         142.4302  138.3298  160.7924 C.2     1  UNL1        0.0598
     19 C         141.1923  139.1284  161.0748 C.2     1  UNL1        0.0047
     20 O         144.1293  139.4638  159.1871 O.2     1  UNL1       -0.2681
     21 C         143.0877  138.4162  159.4470 C.2     1  UNL1        0.2679
     22 N         142.7036  137.4549  158.3614 N.am    1  UNL1       -0.1934
     23 O         143.3612  137.5412  157.0160 O.3     1  UNL1       -0.2949
     24 H         142.0200  136.7673  158.5320 H       1  UNL1        0.1825
     25 H         144.0047  138.2670  157.0166 H       1  UNL1        0.2414
@<TRIPOS>BOND
     1    20    21    2
     2    21    18    1
     3    18    19    2
     4    19     1    1
     5     1     2   ar
     6     2     3   ar
     7     3     4   ar
     8     4     5   ar
     9     5     6   ar
    10     5     7    1
    11     7     8    1
    12     8     9   am
    13     9    10    2
    14     9    12    1
    15    12    13   ar
    16    13    14   ar
    17    14    15   ar
    18    15    16   ar
    19    16    17   ar
    20     8    11    1
    21    21    22   am
    22    22    23    1
    23     6     1   ar
    24    17    12   ar
    25    11     4    1
    26    22    24    1
    27    23    25    1
@<TRIPOS>MOLECULE
*****
 25 27 0 0 0
SMALL
GASTEIGER

@<TRIPOS>ATOM
      1 C         142.0602  140.1054  167.3761 C.ar    1  UNL1       -0.0001
      2 C         142.9637  138.9082  167.3963 C.ar    1  UNL1       -0.0003
      3 C         143.6267  138.4475  166.1321 C.ar    1  UNL1       -0.0029
      4 C         143.3862  139.1840  164.8477 C.ar    1  UNL1       -0.0047
      5 C         142.4827  140.3811  164.8275 C.ar    1  UNL1       -0.0047
      6 C         141.8197  140.8418  166.0917 C.ar    1  UNL1       -0.0029
      7 C         142.4355  140.9026  163.4218 C.3     1  UNL1        0.1205
      8 N         143.3098  140.0277  162.5733 N.am    1  UNL1       -0.2678
      9 C         143.5537  140.1869  161.1018 C.2     1  UNL1        0.2510
     10 O         144.4581  139.2297  160.3836 O.2     1  UNL1       -0.2698
     11 C         143.8974  138.9655  163.4545 C.3     1  UNL1        0.1205
     12 C         142.8932  141.3033  160.3485 C.ar    1  UNL1        0.0727
     13 C         141.5725  141.0751  159.6749 C.ar    1  UNL1        0.0077
     14 C         140.9120  142.1915  158.9217 C.ar    1  UNL1        0.0208
     15 C         141.5722  143.5361  158.8421 C.ar    1  UNL1        0.0989
     16 N         142.8929  143.7642  159.5156 N.ar    1  UNL1       -0.2422
     17 C         143.5534  142.6478  160.2688 C.ar    1  UNL1        0.1034
     18 C         141.6170  141.9647  169.1357 C.2     1  UNL1        0.0598
     19 C         141.3972  140.5661  168.6403 C.2     1  UNL1        0.0047
     20 O         141.6454  142.2439  171.7186 O.2     1  UNL1       -0.2681
     21 C         140.9540  142.4254  170.3999 C.2     1  UNL1        0.2679
     22 N         139.5994  143.0676  170.3454 N.am    1  UNL1       -0.1934
     23 O         138.9365  143.5283  171.6096 O.3     1  UNL1       -0.2949
     24 H         139.1456  143.1868  169.4799 H       1  UNL1        0.1825
     25 H         139.5137  143.3377  172.3655 H       1  UNL1        0.2414
@<TRIPOS>BOND
     1    20    21    2
     2    21    18    1
     3    18    19    2
     4    19     1    1
     5     1     2   ar
     6     2     3   ar
     7     3     4   ar
     8     4     5   ar
     9     5     6   ar
    10     5     7    1
    11     7     8    1
    12     8     9   am
    13     9    10    2
    14     9    12    1
    15    12    13   ar
    16    13    14   ar
    17    14    15   ar
    18    15    16   ar
    19    16    17   ar
    20     8    11    1
    21    21    22   am
    22    22    23    1
    23     6     1   ar
    24    17    12   ar
    25    11     4    1
    26    22    24    1
    27    23    25    1
@<TRIPOS>MOLECULE
*****
 25 27 0 0 0
SMALL
GASTEIGER

@<TRIPOS>ATOM
      1 C         140.5644  139.7766  166.7259 C.ar    1  UNL1       -0.0001
      2 C         139.0884  139.6169  166.9397 C.ar    1  UNL1       -0.0003
      3 C         138.1627  139.5501  165.7613 C.ar    1  UNL1       -0.0029
      4 C         138.7131  139.6430  164.3690 C.ar    1  UNL1       -0.0047
      5 C         140.1891  139.8026  164.1552 C.ar    1  UNL1       -0.0047
      6 C         141.1148  139.8694  165.3336 C.ar    1  UNL1       -0.0029
      7 C         140.4392  139.8663  162.6775 C.3     1  UNL1        0.1205
      8 N         139.1177  139.7460  161.9781 N.am    1  UNL1       -0.2678
      9 C         138.9010  139.7610  160.4939 C.2     1  UNL1        0.2510
     10 O         137.5144  139.6303  159.9370 O.2     1  UNL1       -0.2698
     11 C         138.0509  139.6079  163.0235 C.3     1  UNL1        0.1205
     12 C         140.0710  139.9068  159.5666 C.ar    1  UNL1        0.0727
     13 C         140.8200  138.6910  159.1072 C.ar    1  UNL1        0.0077
     14 C         141.9900  138.8368  158.1799 C.ar    1  UNL1        0.0208
     15 C         142.4110  140.1984  157.7120 C.ar    1  UNL1        0.0989
     16 N         141.6620  141.4141  158.1713 N.ar    1  UNL1       -0.2422
     17 C         140.4920  141.2683  159.0986 C.ar    1  UNL1        0.1034
     18 C         140.9385  140.0814  169.2787 C.2     1  UNL1        0.0598
     19 C         141.4901  139.8434  167.9043 C.2     1  UNL1        0.0047
     20 O         141.5436  141.0494  171.6125 O.2     1  UNL1       -0.2681
     21 C         141.8642  140.1482  170.4571 C.2     1  UNL1        0.2679
     22 N         143.1105  139.3138  170.4801 N.am    1  UNL1       -0.1934
     23 O         144.0362  139.3806  171.6585 O.3     1  UNL1       -0.2949
     24 H         143.3210  138.7223  169.7217 H       1  UNL1        0.1825
     25 H         143.6842  140.0059  172.3111 H       1  UNL1        0.2414
@<TRIPOS>BOND
     1    20    21    2
     2    21    18    1
     3    18    19    2
     4    19     1    1
     5     1     2   ar
     6     2     3   ar
     7     3     4   ar
     8     4     5   ar
     9     5     6   ar
    10     5     7    1
    11     7     8    1
    12     8     9   am
    13     9    10    2
    14     9    12    1
    15    12    13   ar
    16    13    14   ar
    17    14    15   ar
    18    15    16   ar
    19    16    17   ar
    20     8    11    1
    21    21    22   am
    22    22    23    1
    23     6     1   ar
    24    17    12   ar
    25    11     4    1
    26    22    24    1
    27    23    25    1
