@<TRIPOS>MOLECULE
*****
 36 39 0 0 0
SMALL
GASTEIGER

@<TRIPOS>ATOM
      1 N         141.1747  140.5723  167.7606 N.3     1  UNL1       -0.2663
      2 C         139.7826  140.0719  167.5127 C.3     1  UNL1        0.0860
      3 C         139.3724  139.6484  166.1334 C.ar    1  UNL1       -0.0051
      4 C         139.8719  138.3523  165.5672 C.ar    1  UNL1       -0.0020
      5 C         139.4618  137.9288  164.1879 C.ar    1  UNL1        0.0134
      6 C         138.5520  138.8013  163.3749 C.ar    1  UNL1        0.0850
      7 CL        138.1418  138.3778  161.9956 Cl      1  UNL1       -0.0799
      8 C         138.0524  140.0974  163.9411 C.ar    1  UNL1        0.1503
      9 F         137.1427  140.9699  163.1281 F       1  UNL1       -0.2033
     10 C         138.4626  140.5209  165.3203 C.ar    1  UNL1        0.0276
     11 C         138.8006  139.9951  168.6439 C.3     1  UNL1        0.0622
     12 O         139.1942  141.9133  170.3516 O.co2   1  UNL1       -0.5491
     13 C         139.1999  140.4513  170.0160 C.2     1  UNL1        0.0520
     14 O         139.6049  139.4455  171.0525 O.co2   1  UNL1       -0.5491
     15 C         141.4699  142.0407  167.6771 C.3     1  UNL1        0.0994
     16 C         140.9159  142.8538  166.5449 C.ar    1  UNL1       -0.0037
     17 C         141.6109  142.8600  165.2156 C.ar    1  UNL1        0.0003
     18 C         141.0568  143.6732  164.0834 C.ar    1  UNL1        0.0390
     19 C         139.8078  144.4801  164.2806 C.ar    1  UNL1        0.1658
     20 C         139.1129  144.4739  165.6099 C.ar    1  UNL1        0.1735
     21 F         137.8639  145.2808  165.8070 F       1  UNL1       -0.2010
     22 C         139.6669  143.6607  166.7420 C.ar    1  UNL1        0.0299
     23 O         139.2537  145.2933  163.1484 O.3     1  UNL1       -0.4713
     24 C         140.1798  145.8918  162.1314 C.3     1  UNL1        0.2274
     25 C         140.3102  145.2648  160.7750 C.3     1  UNL1        0.1481
     26 N         140.4798  143.7799  160.6483 N.am    1  UNL1       -0.2260
     27 C         141.7722  143.0575  160.4074 C.2     1  UNL1        0.2319
     28 O         143.1218  143.6932  160.2510 O.2     1  UNL1       -0.2745
     29 C         141.4780  141.5877  160.3504 C.3     1  UNL1        0.0953
     30 C         140.0038  141.4018  160.5561 C.3     1  UNL1        0.0953
     31 C         139.3870  142.7566  160.7401 C.2     1  UNL1        0.2319
     32 O         137.9325  143.0386  160.9748 O.2     1  UNL1       -0.2745
     33 C         142.2716  139.6044  168.0921 C.3     1  UNL1        0.0726
     34 C         143.0829  138.9851  166.9929 C.3     1  UNL1        0.0160
     35 C         143.5912  139.0091  165.5819 C.3     1  UNL1        0.0014
     36 C         143.9798  137.8885  166.5002 C.3     1  UNL1        0.0014
@<TRIPOS>UNITY_ATOM_ATTR
12 1
charge -1
@<TRIPOS>BOND
     1    12    13   ar
     2    13    14   ar
     3    13    11    1
     4     2    11    1
     5     2     3    1
     6     3     4   ar
     7     4     5   ar
     8     5     6   ar
     9     6     7    1
    10     6     8   ar
    11     8     9    1
    12     8    10   ar
    13     2     1    1
    14     1    15    1
    15    15    16    1
    16    16    17   ar
    17    17    18   ar
    18    18    19   ar
    19    19    23    1
    20    23    24    1
    21    24    25    1
    22    25    26    1
    23    26    27   am
    24    27    28    2
    25    27    29    1
    26    29    30    1
    27    30    31    1
    28    31    32    2
    29    19    20   ar
    30    20    21    1
    31    20    22   ar
    32     1    33    1
    33    33    34    1
    34    34    35    1
    35    35    36    1
    36    10     3   ar
    37    22    16   ar
    38    36    34    1
    39    31    26   am
@<TRIPOS>MOLECULE
*****
 36 39 0 0 0
SMALL
GASTEIGER

@<TRIPOS>ATOM
      1 N         142.5638  140.0790  168.1148 N.3     1  UNL1       -0.2663
      2 C         142.9036  141.5383  168.0429 C.3     1  UNL1        0.0860
      3 C         142.5997  142.3187  166.7984 C.ar    1  UNL1       -0.0051
      4 C         141.1764  142.6063  166.4224 C.ar    1  UNL1       -0.0020
      5 C         140.8725  143.3867  165.1780 C.ar    1  UNL1        0.0134
      6 C         141.9919  143.8793  164.3095 C.ar    1  UNL1        0.0850
      7 CL        141.6880  144.6597  163.0650 Cl      1  UNL1       -0.0799
      8 C         143.4152  143.5916  164.6855 C.ar    1  UNL1        0.1503
      9 F         144.5346  144.0843  163.8171 F       1  UNL1       -0.2033
     10 C         143.7191  142.8113  165.9300 C.ar    1  UNL1        0.0276
     11 C         143.5473  142.2172  169.2154 C.3     1  UNL1        0.0622
     12 O         143.4110  143.9737  171.1249 O.co2   1  UNL1       -0.5491
     13 C         142.7316  143.1033  170.1097 C.2     1  UNL1        0.0520
     14 O         141.2366  143.1189  169.9886 O.co2   1  UNL1       -0.5491
     15 C         143.1145  139.1295  167.0924 C.3     1  UNL1        0.0994
     16 C         142.4785  139.0351  165.7372 C.ar    1  UNL1       -0.0037
     17 C         143.2177  139.5224  164.5263 C.ar    1  UNL1        0.0003
     18 C         142.5818  139.4280  163.1711 C.ar    1  UNL1        0.0390
     19 C         141.2066  138.8464  163.0268 C.ar    1  UNL1        0.1658
     20 C         140.4675  138.3591  164.2376 C.ar    1  UNL1        0.1735
     21 F         139.0925  137.7774  164.0933 F       1  UNL1       -0.2010
     22 C         141.1035  138.4535  165.5929 C.ar    1  UNL1        0.0299
     23 O         140.5707  138.7520  161.6715 O.3     1  UNL1       -0.4713
     24 C         139.7161  139.8756  161.1642 C.3     1  UNL1        0.2274
     25 C         138.3722  140.1324  161.7791 C.3     1  UNL1        0.1481
     26 N         138.1086  141.4252  162.4924 N.am    1  UNL1       -0.2260
     27 C         138.0216  142.7811  161.8568 C.2     1  UNL1        0.2319
     28 O         138.1830  143.0822  160.3962 O.2     1  UNL1       -0.2745
     29 C         137.7448  143.7832  162.9381 C.3     1  UNL1        0.0953
     30 C         137.6607  143.0465  164.2421 C.3     1  UNL1        0.0953
     31 C         137.8855  141.5893  163.9666 C.2     1  UNL1        0.2319
     32 O         137.8871  140.4892  164.9864 O.2     1  UNL1       -0.2745
     33 C         141.6735  139.5693  169.2091 C.3     1  UNL1        0.0726
     34 C         140.2082  139.8900  169.1943 C.3     1  UNL1        0.0160
     35 C         138.8927  139.9223  168.4744 C.3     1  UNL1        0.0014
     36 C         138.9859  140.4132  169.8887 C.3     1  UNL1        0.0014
@<TRIPOS>UNITY_ATOM_ATTR
12 1
charge -1
@<TRIPOS>BOND
     1    12    13   ar
     2    13    14   ar
     3    13    11    1
     4     2    11    1
     5     2     3    1
     6     3     4   ar
     7     4     5   ar
     8     5     6   ar
     9     6     7    1
    10     6     8   ar
    11     8     9    1
    12     8    10   ar
    13     2     1    1
    14     1    15    1
    15    15    16    1
    16    16    17   ar
    17    17    18   ar
    18    18    19   ar
    19    19    23    1
    20    23    24    1
    21    24    25    1
    22    25    26    1
    23    26    27   am
    24    27    28    2
    25    27    29    1
    26    29    30    1
    27    30    31    1
    28    31    32    2
    29    19    20   ar
    30    20    21    1
    31    20    22   ar
    32     1    33    1
    33    33    34    1
    34    34    35    1
    35    35    36    1
    36    10     3   ar
    37    22    16   ar
    38    36    34    1
    39    31    26   am
@<TRIPOS>MOLECULE
*****
 36 39 0 0 0
SMALL
GASTEIGER

@<TRIPOS>ATOM
      1 N         139.4253  139.7177  165.7163 N.3     1  UNL1       -0.2663
      2 C         140.4383  139.0563  164.8296 C.3     1  UNL1        0.0860
      3 C         141.7770  139.6971  164.6122 C.ar    1  UNL1       -0.0051
      4 C         141.8604  141.1112  164.1188 C.ar    1  UNL1       -0.0020
      5 C         143.1991  141.7519  163.9014 C.ar    1  UNL1        0.0134
      6 C         144.4544  140.9787  164.1776 C.ar    1  UNL1        0.0850
      7 CL        145.7932  141.6195  163.9602 Cl      1  UNL1       -0.0799
      8 C         144.3711  139.5647  164.6711 C.ar    1  UNL1        0.1503
      9 F         145.6264  138.7914  164.9472 F       1  UNL1       -0.2033
     10 C         143.0324  138.9239  164.8884 C.ar    1  UNL1        0.0276
     11 C         140.1126  137.7541  164.1602 C.3     1  UNL1        0.0622
     12 O         141.3758  137.3679  161.9229 O.co2   1  UNL1       -0.5491
     13 C         140.1046  137.6617  162.6630 C.2     1  UNL1        0.0520
     14 O         138.8255  137.8633  161.9060 O.co2   1  UNL1       -0.5491
     15 C         138.1699  140.2879  165.1256 C.3     1  UNL1        0.0994
     16 C         138.2153  141.5892  164.3809 C.ar    1  UNL1       -0.0037
     17 C         137.8038  141.6431  162.9393 C.ar    1  UNL1        0.0003
     18 C         137.8492  142.9444  162.1946 C.ar    1  UNL1        0.0390
     19 C         138.3059  144.1918  162.8915 C.ar    1  UNL1        0.1658
     20 C         138.7173  144.1378  164.3329 C.ar    1  UNL1        0.1735
     21 F         139.1741  145.3852  165.0297 F       1  UNL1       -0.2010
     22 C         138.6720  142.8365  165.0776 C.ar    1  UNL1        0.0299
     23 O         138.3513  145.4931  162.1468 O.3     1  UNL1       -0.4713
     24 C         139.6712  146.0808  161.7434 C.3     1  UNL1        0.2274
     25 C         140.3126  145.6681  160.4518 C.3     1  UNL1        0.1481
     26 N         140.8011  144.2612  160.2730 N.am    1  UNL1       -0.2260
     27 C         140.1011  143.1749  159.5115 C.2     1  UNL1        0.2319
     28 O         138.7897  143.3047  158.7950 O.2     1  UNL1       -0.2745
     29 C         140.9428  141.9359  159.5921 C.3     1  UNL1        0.0953
     30 C         142.1630  142.2565  160.4035 C.3     1  UNL1        0.0953
     31 C         142.0754  143.6936  160.8243 C.2     1  UNL1        0.2319
     32 O         143.0849  144.4332  161.6513 O.2     1  UNL1       -0.2745
     33 C         139.6676  139.8090  167.1938 C.3     1  UNL1        0.0726
     34 C         140.5274  140.9069  167.7464 C.3     1  UNL1        0.0160
     35 C         140.7381  142.3583  168.0610 C.3     1  UNL1        0.0014
     36 C         141.8059  141.3571  168.3889 C.3     1  UNL1        0.0014
@<TRIPOS>UNITY_ATOM_ATTR
12 1
charge -1
@<TRIPOS>BOND
     1    12    13   ar
     2    13    14   ar
     3    13    11    1
     4     2    11    1
     5     2     3    1
     6     3     4   ar
     7     4     5   ar
     8     5     6   ar
     9     6     7    1
    10     6     8   ar
    11     8     9    1
    12     8    10   ar
    13     2     1    1
    14     1    15    1
    15    15    16    1
    16    16    17   ar
    17    17    18   ar
    18    18    19   ar
    19    19    23    1
    20    23    24    1
    21    24    25    1
    22    25    26    1
    23    26    27   am
    24    27    28    2
    25    27    29    1
    26    29    30    1
    27    30    31    1
    28    31    32    2
    29    19    20   ar
    30    20    21    1
    31    20    22   ar
    32     1    33    1
    33    33    34    1
    34    34    35    1
    35    35    36    1
    36    10     3   ar
    37    22    16   ar
    38    36    34    1
    39    31    26   am
@<TRIPOS>MOLECULE
*****
 36 39 0 0 0
SMALL
GASTEIGER

@<TRIPOS>ATOM
      1 N         140.5698  140.3638  167.7020 N.3     1  UNL1       -0.2663
      2 C         140.5338  141.8616  167.7740 C.3     1  UNL1        0.0860
      3 C         140.8326  142.6786  166.5519 C.ar    1  UNL1       -0.0051
      4 C         142.1986  142.6318  165.9340 C.ar    1  UNL1       -0.0020
      5 C         142.4973  143.4487  164.7120 C.ar    1  UNL1        0.0134
      6 C         141.4301  144.3125  164.1080 C.ar    1  UNL1        0.0850
      7 CL        141.7289  145.1295  162.8859 Cl      1  UNL1       -0.0799
      8 C         140.0641  144.3594  164.7259 C.ar    1  UNL1        0.1503
      9 F         138.9969  145.2232  164.1219 F       1  UNL1       -0.2033
     10 C         139.7654  143.5424  165.9479 C.ar    1  UNL1        0.0276
     11 C         140.1991  142.5425  169.0679 C.3     1  UNL1        0.0622
     12 O         142.6558  143.0878  169.7141 O.co2   1  UNL1       -0.5491
     13 C         141.2003  143.4504  169.7186 C.2     1  UNL1        0.0520
     14 O         140.7460  144.7210  170.3738 O.co2   1  UNL1       -0.5491
     15 C         139.3323  139.6008  167.3322 C.3     1  UNL1        0.0994
     16 C         139.0228  139.3273  165.8902 C.ar    1  UNL1       -0.0037
     17 C         139.4398  138.0281  165.2669 C.ar    1  UNL1        0.0003
     18 C         139.1303  137.7546  163.8249 C.ar    1  UNL1        0.0390
     19 C         138.4038  138.7802  163.0062 C.ar    1  UNL1        0.1658
     20 C         137.9869  140.0793  163.6294 C.ar    1  UNL1        0.1735
     21 F         137.2604  141.1049  162.8106 F       1  UNL1       -0.2010
     22 C         138.2964  140.3528  165.0714 C.ar    1  UNL1        0.0299
     23 O         138.0943  138.5067  161.5641 O.3     1  UNL1       -0.4713
     24 C         139.1980  138.1408  160.6165 C.3     1  UNL1        0.2274
     25 C         140.0964  139.2074  160.0639 C.3     1  UNL1        0.1481
     26 N         141.3350  139.6056  160.8104 N.am    1  UNL1       -0.2260
     27 C         141.5084  140.8493  161.6309 C.2     1  UNL1        0.2319
     28 O         140.4736  141.9130  161.8491 O.2     1  UNL1       -0.2745
     29 C         142.8983  140.8424  162.1951 C.3     1  UNL1        0.0953
     30 C         143.5839  139.5945  161.7231 C.3     1  UNL1        0.0953
     31 C         142.6177  138.8301  160.8674 C.2     1  UNL1        0.2319
     32 O         142.8870  137.5203  160.1879 O.2     1  UNL1       -0.2745
     33 C         141.8430  139.6289  167.9999 C.3     1  UNL1        0.0726
     34 C         142.6680  139.0726  166.8774 C.3     1  UNL1        0.0160
     35 C         143.0154  139.0280  165.4189 C.3     1  UNL1        0.0014
     36 C         143.7496  138.1537  166.3919 C.3     1  UNL1        0.0014
@<TRIPOS>UNITY_ATOM_ATTR
12 1
charge -1
@<TRIPOS>BOND
     1    12    13   ar
     2    13    14   ar
     3    13    11    1
     4     2    11    1
     5     2     3    1
     6     3     4   ar
     7     4     5   ar
     8     5     6   ar
     9     6     7    1
    10     6     8   ar
    11     8     9    1
    12     8    10   ar
    13     2     1    1
    14     1    15    1
    15    15    16    1
    16    16    17   ar
    17    17    18   ar
    18    18    19   ar
    19    19    23    1
    20    23    24    1
    21    24    25    1
    22    25    26    1
    23    26    27   am
    24    27    28    2
    25    27    29    1
    26    29    30    1
    27    30    31    1
    28    31    32    2
    29    19    20   ar
    30    20    21    1
    31    20    22   ar
    32     1    33    1
    33    33    34    1
    34    34    35    1
    35    35    36    1
    36    10     3   ar
    37    22    16   ar
    38    36    34    1
    39    31    26   am
@<TRIPOS>MOLECULE
*****
 36 39 0 0 0
SMALL
GASTEIGER

@<TRIPOS>ATOM
      1 N         140.8416  140.4462  167.7261 N.3     1  UNL1       -0.2663
      2 C         140.9728  141.9396  167.6762 C.3     1  UNL1        0.0860
      3 C         141.6349  142.5955  166.5008 C.ar    1  UNL1       -0.0051
      4 C         140.8041  143.2937  165.4653 C.ar    1  UNL1       -0.0020
      5 C         141.4662  143.9495  164.2900 C.ar    1  UNL1        0.0134
      6 C         142.9591  143.9073  164.1502 C.ar    1  UNL1        0.0850
      7 CL        143.6212  144.5632  162.9749 Cl      1  UNL1       -0.0799
      8 C         143.7899  143.2091  165.1858 C.ar    1  UNL1        0.1503
      9 F         145.2827  143.1669  165.0460 F       1  UNL1       -0.2033
     10 C         143.1277  142.5533  166.3611 C.ar    1  UNL1        0.0276
     11 C         140.4418  142.7771  168.8017 C.3     1  UNL1        0.0622
     12 O         142.6414  143.2668  170.0947 O.co2   1  UNL1       -0.5491
     13 C         141.1972  142.8615  170.0949 C.2     1  UNL1        0.0520
     14 O         140.5084  142.5407  171.3881 O.co2   1  UNL1       -0.5491
     15 C         139.5319  139.7967  167.3902 C.3     1  UNL1        0.0994
     16 C         139.1694  139.5360  165.9582 C.ar    1  UNL1       -0.0037
     17 C         139.6691  138.2997  165.2711 C.ar    1  UNL1        0.0003
     18 C         139.3066  138.0391  163.8391 C.ar    1  UNL1        0.0390
     19 C         138.4445  139.0148  163.0941 C.ar    1  UNL1        0.1658
     20 C         137.9449  140.2510  163.7812 C.ar    1  UNL1        0.1735
     21 F         137.0829  141.2266  163.0363 F       1  UNL1       -0.2010
     22 C         138.3074  140.5116  165.2132 C.ar    1  UNL1        0.0299
     23 O         138.0821  138.7542  161.6621 O.3     1  UNL1       -0.4713
     24 C         139.0932  138.1559  160.7295 C.3     1  UNL1        0.2274
     25 C         140.1443  139.0251  160.1052 C.3     1  UNL1        0.1481
     26 N         141.3361  139.4549  160.9081 N.am    1  UNL1       -0.2260
     27 C         142.6227  138.6972  161.0511 C.2     1  UNL1        0.2319
     28 O         142.9434  137.3766  160.4162 O.2     1  UNL1       -0.2745
     29 C         143.5324  139.4919  161.9404 C.3     1  UNL1        0.0953
     30 C         142.8079  140.7408  162.3471 C.3     1  UNL1        0.0953
     31 C         141.4506  140.7180  161.7091 C.2     1  UNL1        0.2319
     32 O         140.3933  141.7729  161.8478 O.2     1  UNL1       -0.2745
     33 C         142.0202  139.6023  168.1118 C.3     1  UNL1        0.0726
     34 C         142.8747  138.9770  167.0494 C.3     1  UNL1        0.0160
     35 C         143.3057  138.8861  165.6156 C.3     1  UNL1        0.0014
     36 C         143.9238  137.9849  166.6431 C.3     1  UNL1        0.0014
@<TRIPOS>UNITY_ATOM_ATTR
12 1
charge -1
@<TRIPOS>BOND
     1    12    13   ar
     2    13    14   ar
     3    13    11    1
     4     2    11    1
     5     2     3    1
     6     3     4   ar
     7     4     5   ar
     8     5     6   ar
     9     6     7    1
    10     6     8   ar
    11     8     9    1
    12     8    10   ar
    13     2     1    1
    14     1    15    1
    15    15    16    1
    16    16    17   ar
    17    17    18   ar
    18    18    19   ar
    19    19    23    1
    20    23    24    1
    21    24    25    1
    22    25    26    1
    23    26    27   am
    24    27    28    2
    25    27    29    1
    26    29    30    1
    27    30    31    1
    28    31    32    2
    29    19    20   ar
    30    20    21    1
    31    20    22   ar
    32     1    33    1
    33    33    34    1
    34    34    35    1
    35    35    36    1
    36    10     3   ar
    37    22    16   ar
    38    36    34    1
    39    31    26   am
@<TRIPOS>MOLECULE
*****
 36 39 0 0 0
SMALL
GASTEIGER

@<TRIPOS>ATOM
      1 N         140.5767  140.6880  167.5528 N.3     1  UNL1       -0.2663
      2 C         140.7672  142.1756  167.5820 C.3     1  UNL1        0.0860
      3 C         140.5029  142.9899  166.3502 C.ar    1  UNL1       -0.0051
      4 C         139.3137  143.9023  166.2951 C.ar    1  UNL1       -0.0020
      5 C         139.0495  144.7165  165.0634 C.ar    1  UNL1        0.0134
      6 C         139.9745  144.6182  163.8867 C.ar    1  UNL1        0.0850
      7 CL        139.7102  145.4324  162.6549 Cl      1  UNL1       -0.0799
      8 C         141.1637  143.7058  163.9417 C.ar    1  UNL1        0.1503
      9 F         142.0888  143.6075  162.7650 F       1  UNL1       -0.2033
     10 C         141.4280  142.8916  165.1735 C.ar    1  UNL1        0.0276
     11 C         141.2219  142.8490  168.8428 C.3     1  UNL1        0.0622
     12 O         140.0285  144.6711  170.2591 O.co2   1  UNL1       -0.5491
     13 C         140.2207  143.2291  169.8932 C.2     1  UNL1        0.0520
     14 O         139.4117  142.1674  170.5775 O.co2   1  UNL1       -0.5491
     15 C         139.2367  140.1102  167.2055 C.3     1  UNL1        0.0994
     16 C         138.9545  139.6612  165.8024 C.ar    1  UNL1       -0.0037
     17 C         139.3350  138.2771  165.3669 C.ar    1  UNL1        0.0003
     18 C         139.0528  137.8282  163.9638 C.ar    1  UNL1        0.0390
     19 C         138.3900  138.7633  162.9961 C.ar    1  UNL1        0.1658
     20 C         138.0096  140.1474  163.4315 C.ar    1  UNL1        0.1735
     21 F         137.3469  141.0824  162.4639 F       1  UNL1       -0.2010
     22 C         138.2918  140.5963  164.8347 C.ar    1  UNL1        0.0299
     23 O         138.1078  138.3144  161.5929 O.3     1  UNL1       -0.4713
     24 C         139.2398  137.9341  160.6851 C.3     1  UNL1        0.2274
     25 C         139.6465  138.8503  159.5693 C.3     1  UNL1        0.1481
     26 N         139.4032  140.3259  159.6839 N.am    1  UNL1       -0.2260
     27 C         140.1356  141.2727  160.5879 C.2     1  UNL1        0.2319
     28 O         141.2400  140.9101  161.5360 O.2     1  UNL1       -0.2745
     29 C         139.5697  142.6459  160.3774 C.3     1  UNL1        0.0953
     30 C         138.4875  142.5477  159.3433 C.3     1  UNL1        0.0953
     31 C         138.3846  141.1139  158.9147 C.2     1  UNL1        0.2319
     32 O         137.4306  140.5646  157.8958 O.2     1  UNL1       -0.2745
     33 C         141.7261  139.7784  167.8710 C.3     1  UNL1        0.0726
     34 C         142.6116  139.2753  166.7698 C.3     1  UNL1        0.0160
     35 C         143.1378  139.3926  165.3700 C.3     1  UNL1        0.0014
     36 C         143.6191  138.2869  166.2621 C.3     1  UNL1        0.0014
@<TRIPOS>UNITY_ATOM_ATTR
12 1
charge -1
@<TRIPOS>BOND
     1    12    13   ar
     2    13    14   ar
     3    13    11    1
     4     2    11    1
     5     2     3    1
     6     3     4   ar
     7     4     5   ar
     8     5     6   ar
     9     6     7    1
    10     6     8   ar
    11     8     9    1
    12     8    10   ar
    13     2     1    1
    14     1    15    1
    15    15    16    1
    16    16    17   ar
    17    17    18   ar
    18    18    19   ar
    19    19    23    1
    20    23    24    1
    21    24    25    1
    22    25    26    1
    23    26    27   am
    24    27    28    2
    25    27    29    1
    26    29    30    1
    27    30    31    1
    28    31    32    2
    29    19    20   ar
    30    20    21    1
    31    20    22   ar
    32     1    33    1
    33    33    34    1
    34    34    35    1
    35    35    36    1
    36    10     3   ar
    37    22    16   ar
    38    36    34    1
    39    31    26   am
@<TRIPOS>MOLECULE
*****
 36 39 0 0 0
SMALL
GASTEIGER

@<TRIPOS>ATOM
      1 N         141.8556  140.2276  167.6916 N.3     1  UNL1       -0.2663
      2 C         142.3837  141.6311  167.6562 C.3     1  UNL1        0.0860
      3 C         142.1778  142.4794  166.4363 C.ar    1  UNL1       -0.0051
      4 C         140.7969  142.9262  166.0578 C.ar    1  UNL1       -0.0020
      5 C         140.5910  143.7744  164.8379 C.ar    1  UNL1        0.0134
      6 C         141.7661  144.1758  163.9965 C.ar    1  UNL1        0.0850
      7 CL        141.5603  145.0240  162.7766 Cl      1  UNL1       -0.0799
      8 C         143.1471  143.7289  164.3749 C.ar    1  UNL1        0.1503
      9 F         144.3222  144.1303  163.5335 F       1  UNL1       -0.2033
     10 C         143.3529  142.8807  165.5948 C.ar    1  UNL1        0.0276
     11 C         143.1176  142.1864  168.8406 C.3     1  UNL1        0.0622
     12 O         140.8940  143.1402  169.7872 O.co2   1  UNL1       -0.5491
     13 C         142.3878  143.0200  169.8519 C.2     1  UNL1        0.0520
     14 O         143.1517  143.7332  170.9278 O.co2   1  UNL1       -0.5491
     15 C         142.6848  139.1004  167.1511 C.3     1  UNL1        0.0994
     16 C         142.6758  138.8005  165.6814 C.ar    1  UNL1       -0.0037
     17 C         143.8006  139.2781  164.8115 C.ar    1  UNL1        0.0003
     18 C         143.7916  138.9782  163.3419 C.ar    1  UNL1        0.0390
     19 C         142.6577  138.2006  162.7420 C.ar    1  UNL1        0.1658
     20 C         141.5329  137.7230  163.6119 C.ar    1  UNL1        0.1735
     21 F         140.3991  136.9454  163.0121 F       1  UNL1       -0.2010
     22 C         141.5420  138.0229  165.0816 C.ar    1  UNL1        0.0299
     23 O         142.6487  137.9006  161.2724 O.3     1  UNL1       -0.4713
     24 C         141.9735  138.8415  160.3190 C.3     1  UNL1        0.2274
     25 C         140.4776  138.8523  160.2090 C.3     1  UNL1        0.1481
     26 N         139.6645  139.7199  161.1234 N.am    1  UNL1       -0.2260
     27 C         138.3891  139.3271  161.8083 C.2     1  UNL1        0.2319
     28 O         137.7027  137.9979  161.6989 O.2     1  UNL1       -0.2745
     29 C         137.9204  140.4971  162.6217 C.3     1  UNL1        0.0953
     30 C         138.9063  141.6129  162.4395 C.3     1  UNL1        0.0953
     31 C         139.9842  141.1325  161.5136 C.2     1  UNL1        0.2319
     32 O         141.1730  141.9256  161.0578 O.2     1  UNL1       -0.2745
     33 C         140.4985  139.9512  168.2674 C.3     1  UNL1        0.0726
     34 C         139.3404  139.6694  167.3566 C.3     1  UNL1        0.0160
     35 C         138.5758  139.9606  166.0995 C.3     1  UNL1        0.0014
     36 C         138.0994  138.8903  167.0362 C.3     1  UNL1        0.0014
@<TRIPOS>UNITY_ATOM_ATTR
12 1
charge -1
@<TRIPOS>BOND
     1    12    13   ar
     2    13    14   ar
     3    13    11    1
     4     2    11    1
     5     2     3    1
     6     3     4   ar
     7     4     5   ar
     8     5     6   ar
     9     6     7    1
    10     6     8   ar
    11     8     9    1
    12     8    10   ar
    13     2     1    1
    14     1    15    1
    15    15    16    1
    16    16    17   ar
    17    17    18   ar
    18    18    19   ar
    19    19    23    1
    20    23    24    1
    21    24    25    1
    22    25    26    1
    23    26    27   am
    24    27    28    2
    25    27    29    1
    26    29    30    1
    27    30    31    1
    28    31    32    2
    29    19    20   ar
    30    20    21    1
    31    20    22   ar
    32     1    33    1
    33    33    34    1
    34    34    35    1
    35    35    36    1
    36    10     3   ar
    37    22    16   ar
    38    36    34    1
    39    31    26   am
@<TRIPOS>MOLECULE
*****
 36 39 0 0 0
SMALL
GASTEIGER

@<TRIPOS>ATOM
      1 N         141.2433  140.6497  167.6817 N.3     1  UNL1       -0.2663
      2 C         139.8344  140.1796  167.4717 C.3     1  UNL1        0.0860
      3 C         139.3124  139.9722  166.0808 C.ar    1  UNL1       -0.0051
      4 C         138.6265  141.0958  165.3618 C.ar    1  UNL1       -0.0020
      5 C         138.1046  140.8883  163.9710 C.ar    1  UNL1        0.0134
      6 C         138.2685  139.5572  163.2991 C.ar    1  UNL1        0.0850
      7 CL        137.7466  139.3498  161.9082 Cl      1  UNL1       -0.0799
      8 C         138.9545  138.4336  164.0181 C.ar    1  UNL1        0.1503
      9 F         139.1185  137.1026  163.3463 F       1  UNL1       -0.2033
     10 C         139.4764  138.6411  165.4090 C.ar    1  UNL1        0.0276
     11 C         138.9476  139.9170  168.6526 C.3     1  UNL1        0.0622
     12 O         139.3436  141.9405  170.2332 O.co2   1  UNL1       -0.5491
     13 C         139.3155  140.4587  170.0021 C.2     1  UNL1        0.0520
     14 O         139.6553  139.5186  171.1205 O.co2   1  UNL1       -0.5491
     15 C         141.5944  142.0908  167.4577 C.3     1  UNL1        0.0994
     16 C         142.2021  142.5210  166.1556 C.ar    1  UNL1       -0.0037
     17 C         141.3887  143.3097  165.1725 C.ar    1  UNL1        0.0003
     18 C         141.9964  143.7399  163.8704 C.ar    1  UNL1        0.0390
     19 C         143.4177  143.3815  163.5513 C.ar    1  UNL1        0.1658
     20 C         144.2311  142.5929  164.5344 C.ar    1  UNL1        0.1735
     21 F         145.6522  142.2345  164.2154 F       1  UNL1       -0.2010
     22 C         143.6233  142.1627  165.8365 C.ar    1  UNL1        0.0299
     23 O         144.0254  143.8117  162.2492 O.3     1  UNL1       -0.4713
     24 C         144.1561  142.8306  161.1221 C.3     1  UNL1        0.2274
     25 C         142.9802  141.9916  160.7179 C.3     1  UNL1        0.1481
     26 N         143.0105  140.5068  160.9285 N.am    1  UNL1       -0.2260
     27 C         143.6168  139.4968  159.9998 C.2     1  UNL1        0.2319
     28 O         144.2992  139.7943  158.6976 O.2     1  UNL1       -0.2745
     29 C         143.4209  138.1370  160.6020 C.3     1  UNL1        0.0953
     30 C         142.6935  138.3066  161.9029 C.3     1  UNL1        0.0953
     31 C         142.4399  139.7712  162.1046 C.2     1  UNL1        0.2319
     32 O         141.7388  140.3913  163.2767 O.2     1  UNL1       -0.2745
     33 C         142.3011  139.6788  168.1156 C.3     1  UNL1        0.0726
     34 C         143.0016  138.8283  167.0978 C.3     1  UNL1        0.0160
     35 C         143.1280  138.3262  165.6900 C.3     1  UNL1        0.0014
     36 C         144.0883  137.8573  166.7426 C.3     1  UNL1        0.0014
@<TRIPOS>UNITY_ATOM_ATTR
12 1
charge -1
@<TRIPOS>BOND
     1    12    13   ar
     2    13    14   ar
     3    13    11    1
     4     2    11    1
     5     2     3    1
     6     3     4   ar
     7     4     5   ar
     8     5     6   ar
     9     6     7    1
    10     6     8   ar
    11     8     9    1
    12     8    10   ar
    13     2     1    1
    14     1    15    1
    15    15    16    1
    16    16    17   ar
    17    17    18   ar
    18    18    19   ar
    19    19    23    1
    20    23    24    1
    21    24    25    1
    22    25    26    1
    23    26    27   am
    24    27    28    2
    25    27    29    1
    26    29    30    1
    27    30    31    1
    28    31    32    2
    29    19    20   ar
    30    20    21    1
    31    20    22   ar
    32     1    33    1
    33    33    34    1
    34    34    35    1
    35    35    36    1
    36    10     3   ar
    37    22    16   ar
    38    36    34    1
    39    31    26   am
@<TRIPOS>MOLECULE
*****
 36 39 0 0 0
SMALL
GASTEIGER

@<TRIPOS>ATOM
      1 N         141.5333  140.3484  167.4068 N.3     1  UNL1       -0.2663
      2 C         142.0142  141.7616  167.2592 C.3     1  UNL1        0.0860
      3 C         141.4471  142.6381  166.1820 C.ar    1  UNL1       -0.0051
      4 C         142.2872  143.0067  164.9953 C.ar    1  UNL1       -0.0020
      5 C         141.7201  143.8833  163.9182 C.ar    1  UNL1        0.0134
      6 C         140.3130  144.3912  164.0279 C.ar    1  UNL1        0.0850
      7 CL        139.7459  145.2678  162.9508 Cl      1  UNL1       -0.0799
      8 C         139.4729  144.0226  165.2147 C.ar    1  UNL1        0.1503
      9 F         138.0658  144.5306  165.3244 F       1  UNL1       -0.2033
     10 C         140.0400  143.1461  166.2917 C.ar    1  UNL1        0.0276
     11 C         143.0621  142.2981  168.1886 C.3     1  UNL1        0.0622
     12 O         143.4589  140.6609  170.1665 O.co2   1  UNL1       -0.5491
     13 C         142.9918  141.9915  169.6553 C.2     1  UNL1        0.0520
     14 O         142.4546  143.0154  170.6107 O.co2   1  UNL1       -0.5491
     15 C         142.3906  139.2113  166.9356 C.3     1  UNL1        0.0994
     16 C         142.3945  138.8255  165.4861 C.ar    1  UNL1       -0.0037
     17 C         141.3548  137.8818  164.9584 C.ar    1  UNL1        0.0003
     18 C         141.3587  137.4960  163.5088 C.ar    1  UNL1        0.0390
     19 C         142.4023  138.0539  162.5870 C.ar    1  UNL1        0.1658
     20 C         143.4419  138.9976  163.1147 C.ar    1  UNL1        0.1735
     21 F         144.4855  139.5555  162.1929 F       1  UNL1       -0.2010
     22 C         143.4381  139.3834  164.5643 C.ar    1  UNL1        0.0299
     23 O         142.4062  137.6681  161.1375 O.3     1  UNL1       -0.4713
     24 C         141.8389  138.6033  160.1109 C.3     1  UNL1        0.2274
     25 C         140.3527  138.7382  159.9592 C.3     1  UNL1        0.1481
     26 N         139.5920  139.6863  160.8380 N.am    1  UNL1       -0.2260
     27 C         139.8113  141.1671  160.9350 C.2     1  UNL1        0.2319
     28 O         140.8296  141.9596  160.1703 O.2     1  UNL1       -0.2745
     29 C         138.8333  141.7162  161.9311 C.3     1  UNL1        0.0953
     30 C         138.0096  140.5748  162.4496 C.3     1  UNL1        0.0953
     31 C         138.4786  139.3203  161.7740 C.2     1  UNL1        0.2319
     32 O         137.9303  137.9418  161.9957 O.2     1  UNL1       -0.2745
     33 C         140.1950  140.0724  168.0255 C.3     1  UNL1        0.0726
     34 C         139.0612  139.5841  167.1735 C.3     1  UNL1        0.0160
     35 C         137.8867  138.6732  166.9716 C.3     1  UNL1        0.0014
     36 C         138.2718  139.6493  165.8997 C.3     1  UNL1        0.0014
@<TRIPOS>UNITY_ATOM_ATTR
12 1
charge -1
@<TRIPOS>BOND
     1    12    13   ar
     2    13    14   ar
     3    13    11    1
     4     2    11    1
     5     2     3    1
     6     3     4   ar
     7     4     5   ar
     8     5     6   ar
     9     6     7    1
    10     6     8   ar
    11     8     9    1
    12     8    10   ar
    13     2     1    1
    14     1    15    1
    15    15    16    1
    16    16    17   ar
    17    17    18   ar
    18    18    19   ar
    19    19    23    1
    20    23    24    1
    21    24    25    1
    22    25    26    1
    23    26    27   am
    24    27    28    2
    25    27    29    1
    26    29    30    1
    27    30    31    1
    28    31    32    2
    29    19    20   ar
    30    20    21    1
    31    20    22   ar
    32     1    33    1
    33    33    34    1
    34    34    35    1
    35    35    36    1
    36    10     3   ar
    37    22    16   ar
    38    36    34    1
    39    31    26   am
