@<TRIPOS>MOLECULE
*****
 35 37 0 0 0
SMALL
GASTEIGER

@<TRIPOS>ATOM
      1 C         143.0143  140.4297  165.3952 C.2     1  UNL1        0.2521
      2 O         144.0462  139.3418  165.3569 O.2     1  UNL1       -0.2698
      3 N         142.7409  141.2478  164.1680 N.am    1  UNL1       -0.2725
      4 C         141.7089  142.3357  164.2064 C.3     1  UNL1        0.1152
      5 C         141.4355  143.1538  162.9792 C.3     1  UNL1        0.1137
      6 N         142.1942  142.8838  161.7135 N.pl3   1  UNL1       -0.2897
      7 C         143.2261  141.7959  161.6752 C.3     1  UNL1        0.1137
      8 C         143.4994  140.9779  162.9024 C.3     1  UNL1        0.1152
      9 C         140.9171  140.0605  166.8838 C.ar    1  UNL1        0.1432
     10 C         140.1586  140.3304  168.1493 C.ar    1  UNL1        0.0384
     11 C         140.7385  141.2396  169.1920 C.ar    1  UNL1        0.0215
     12 C         142.0771  141.8788  168.9690 C.ar    1  UNL1        0.1061
     13 C         142.8356  141.6088  167.7035 C.ar    1  UNL1        0.0259
     14 C         142.2556  140.6997  166.6608 C.ar    1  UNL1        0.0887
     15 S         142.6570  142.7879  170.0117 S.O2    1  UNL1        0.0105
     16 C         143.2370  143.6971  171.0543 C.3     1  UNL1        0.1816
     17 O         141.3064  142.9156  170.6516 O.2     1  UNL1       -0.1686
     18 O         144.0077  142.6603  169.3717 O.2     1  UNL1       -0.1686
     19 O         140.3371  139.1514  165.8411 O.3     1  UNL1       -0.4702
     20 C         138.1100  140.1016  164.8993 C.3     1  UNL1        0.0566
     21 C         138.8496  139.0526  165.6757 C.3     1  UNL1        0.2599
     22 C         138.1015  137.9049  166.2866 C.3     1  UNL1        0.4340
     23 F         137.3535  136.7572  166.8975 F       1  UNL1       -0.1664
     24 F         137.3400  138.8628  167.1540 F       1  UNL1       -0.1664
     25 F         138.8631  136.9469  165.4193 F       1  UNL1       -0.1664
     26 C         141.9208  143.7019  160.4863 C.ar    1  UNL1        0.1318
     27 C         140.7508  144.6401  160.4556 C.ar    1  UNL1        0.0343
     28 C         140.4774  145.4581  159.2284 C.ar    1  UNL1        0.0083
     29 C         141.3741  145.3379  158.0318 C.ar    1  UNL1        0.0906
     30 C         142.5440  144.3997  158.0626 C.ar    1  UNL1        0.1041
     31 N         142.8174  143.5817  159.2898 N.ar    1  UNL1       -0.2292
     32 C         141.1007  146.1560  156.8046 C.3     1  UNL1        0.4200
     33 F         140.8273  146.9740  155.5774 F       1  UNL1       -0.1658
     34 F         139.8372  146.6699  157.4286 F       1  UNL1       -0.1658
     35 F         142.3642  145.6420  156.1806 F       1  UNL1       -0.1658
@<TRIPOS>BOND
     1    20    21    1
     2    21    19    1
     3    19     9    1
     4     9    10   ar
     5    10    11   ar
     6    11    12   ar
     7    12    15    1
     8    15    16    1
     9    15    17    2
    10    15    18    2
    11    12    13   ar
    12    13    14   ar
    13    14     1    1
    14     1     2    2
    15     1     3   am
    16     3     4    1
    17     4     5    1
    18     5     6    1
    19     6    26    1
    20    26    27   ar
    21    27    28   ar
    22    28    29   ar
    23    29    32    1
    24    32    33    1
    25    32    34    1
    26    32    35    1
    27    29    30   ar
    28    30    31   ar
    29     6     7    1
    30     7     8    1
    31    21    22    1
    32    22    23    1
    33    22    24    1
    34    22    25    1
    35    14     9   ar
    36     8     3    1
    37    31    26   ar
@<TRIPOS>MOLECULE
*****
 35 37 0 0 0
SMALL
GASTEIGER

@<TRIPOS>ATOM
      1 C         139.2340  142.3247  164.6248 C.2     1  UNL1        0.2521
      2 O         137.9861  143.1445  164.4819 O.2     1  UNL1       -0.2698
      3 N         140.1596  142.1577  163.4563 N.am    1  UNL1       -0.2725
      4 C         141.4076  141.3378  163.5993 C.3     1  UNL1        0.1152
      5 C         142.3332  141.1707  162.4308 C.3     1  UNL1        0.1137
      6 N         142.0108  141.8236  161.1193 N.pl3   1  UNL1       -0.2897
      7 C         140.7629  142.6434  160.9764 C.3     1  UNL1        0.1137
      8 C         139.8373  142.8104  162.1449 C.3     1  UNL1        0.1152
      9 C         139.0033  140.3144  166.2544 C.ar    1  UNL1        0.1432
     10 C         139.3257  139.6616  167.5658 C.ar    1  UNL1        0.0384
     11 C         140.2013  140.3663  168.5591 C.ar    1  UNL1        0.0215
     12 C         140.7545  141.7237  168.2411 C.ar    1  UNL1        0.1061
     13 C         140.4320  142.3765  166.9296 C.ar    1  UNL1        0.0259
     14 C         139.5564  141.6718  165.9363 C.ar    1  UNL1        0.0887
     15 S         141.6301  142.4284  169.2344 S.O2    1  UNL1        0.0105
     16 C         142.5057  143.1331  170.2278 C.3     1  UNL1        0.1816
     17 O         140.5797  143.4847  169.4109 O.2     1  UNL1       -0.1686
     18 O         142.6804  141.3722  169.0579 O.2     1  UNL1       -0.1686
     19 O         138.1277  139.6097  165.2610 O.3     1  UNL1       -0.4702
     20 C         138.3736  139.0116  162.7447 C.3     1  UNL1        0.0566
     21 C         138.7436  138.7735  164.1788 C.3     1  UNL1        0.2599
     22 C         139.7296  137.6991  164.5305 C.3     1  UNL1        0.4340
     23 F         140.7155  136.6248  164.8822 F       1  UNL1       -0.1664
     24 F         140.7208  138.2963  163.5762 F       1  UNL1       -0.1664
     25 F         138.7384  137.1019  165.4848 F       1  UNL1       -0.1664
     26 C         142.9364  141.6566  159.9508 C.ar    1  UNL1        0.1318
     27 C         142.8462  140.4301  159.0919 C.ar    1  UNL1        0.0343
     28 C         143.7717  140.2631  157.9234 C.ar    1  UNL1        0.0083
     29 C         144.7876  141.3225  157.6138 C.ar    1  UNL1        0.0906
     30 C         144.8778  142.5489  158.4728 C.ar    1  UNL1        0.1041
     31 N         143.9522  142.7159  159.6413 N.ar    1  UNL1       -0.2292
     32 C         145.7132  141.1555  156.4453 C.3     1  UNL1        0.4200
     33 F         146.6388  140.9885  155.2769 F       1  UNL1       -0.1658
     34 F         144.8495  140.0475  155.9196 F       1  UNL1       -0.1658
     35 F         146.5768  142.2635  156.9711 F       1  UNL1       -0.1658
@<TRIPOS>BOND
     1    20    21    1
     2    21    19    1
     3    19     9    1
     4     9    10   ar
     5    10    11   ar
     6    11    12   ar
     7    12    15    1
     8    15    16    1
     9    15    17    2
    10    15    18    2
    11    12    13   ar
    12    13    14   ar
    13    14     1    1
    14     1     2    2
    15     1     3   am
    16     3     4    1
    17     4     5    1
    18     5     6    1
    19     6    26    1
    20    26    27   ar
    21    27    28   ar
    22    28    29   ar
    23    29    32    1
    24    32    33    1
    25    32    34    1
    26    32    35    1
    27    29    30   ar
    28    30    31   ar
    29     6     7    1
    30     7     8    1
    31    21    22    1
    32    22    23    1
    33    22    24    1
    34    22    25    1
    35    14     9   ar
    36     8     3    1
    37    31    26   ar
@<TRIPOS>MOLECULE
*****
 35 37 0 0 0
SMALL
GASTEIGER

@<TRIPOS>ATOM
      1 C         141.6047  140.2136  162.7750 C.2     1  UNL1        0.2521
      2 O         142.6517  139.9637  163.8197 O.2     1  UNL1       -0.2698
      3 N         141.6716  139.4961  161.4594 N.am    1  UNL1       -0.2725
      4 C         140.6246  139.7460  160.4148 C.3     1  UNL1        0.1152
      5 C         140.6915  139.0286  159.0992 C.3     1  UNL1        0.1137
      6 N         141.8055  138.0612  158.8283 N.pl3   1  UNL1       -0.2897
      7 C         142.8524  137.8113  159.8729 C.3     1  UNL1        0.1137
      8 C         142.7855  138.5288  161.1885 C.3     1  UNL1        0.1152
      9 C         139.2829  140.7372  163.8167 C.ar    1  UNL1        0.1432
     10 C         138.1690  141.7045  164.0876 C.ar    1  UNL1        0.0384
     11 C         138.2630  143.1156  163.5877 C.ar    1  UNL1        0.0215
     12 C         139.4708  143.5594  162.8169 C.ar    1  UNL1        0.1061
     13 C         140.5847  142.5921  162.5461 C.ar    1  UNL1        0.0259
     14 C         140.4907  141.1809  163.0460 C.ar    1  UNL1        0.0887
     15 S         139.5647  144.9705  162.3170 S.O2    1  UNL1        0.0105
     16 C         139.6587  146.3817  161.8171 C.3     1  UNL1        0.1816
     17 O         141.0608  144.8639  162.2972 O.2     1  UNL1       -0.1686
     18 O         138.0687  145.0772  162.3369 O.2     1  UNL1       -0.1686
     19 O         139.1889  139.3260  164.3166 O.3     1  UNL1       -0.4702
     20 C         140.0885  139.7929  166.7089 C.3     1  UNL1        0.0566
     21 C         139.1607  139.0531  165.7913 C.3     1  UNL1        0.2599
     22 C         138.2047  138.0403  166.3484 C.3     1  UNL1        0.4340
     23 F         137.2487  137.0275  166.9055 F       1  UNL1       -0.1664
     24 F         137.8518  138.9844  167.4593 F       1  UNL1       -0.1664
     25 F         138.5576  137.0961  165.2376 F       1  UNL1       -0.1664
     26 C         141.8724  137.3437  157.5127 C.ar    1  UNL1        0.1318
     27 C         140.6461  137.2323  156.6559 C.ar    1  UNL1        0.0343
     28 C         140.7130  136.5149  155.3403 C.ar    1  UNL1        0.0083
     29 C         142.0062  135.9088  154.8815 C.ar    1  UNL1        0.0906
     30 C         143.2324  136.0203  155.7382 C.ar    1  UNL1        0.1041
     31 N         143.1655  136.7377  157.0538 N.ar    1  UNL1       -0.2292
     32 C         142.0731  135.1914  153.5659 C.3     1  UNL1        0.4200
     33 F         142.1400  134.4739  152.2503 F       1  UNL1       -0.1658
     34 F         141.0257  136.1108  153.0112 F       1  UNL1       -0.1658
     35 F         143.1205  134.2720  154.1206 F       1  UNL1       -0.1658
@<TRIPOS>BOND
     1    20    21    1
     2    21    19    1
     3    19     9    1
     4     9    10   ar
     5    10    11   ar
     6    11    12   ar
     7    12    15    1
     8    15    16    1
     9    15    17    2
    10    15    18    2
    11    12    13   ar
    12    13    14   ar
    13    14     1    1
    14     1     2    2
    15     1     3   am
    16     3     4    1
    17     4     5    1
    18     5     6    1
    19     6    26    1
    20    26    27   ar
    21    27    28   ar
    22    28    29   ar
    23    29    32    1
    24    32    33    1
    25    32    34    1
    26    32    35    1
    27    29    30   ar
    28    30    31   ar
    29     6     7    1
    30     7     8    1
    31    21    22    1
    32    22    23    1
    33    22    24    1
    34    22    25    1
    35    14     9   ar
    36     8     3    1
    37    31    26   ar
@<TRIPOS>MOLECULE
*****
 35 37 0 0 0
SMALL
GASTEIGER

@<TRIPOS>ATOM
      1 C         139.8650  139.4929  164.8808 C.2     1  UNL1        0.2521
      2 O         138.9893  138.2778  164.8001 O.2     1  UNL1       -0.2698
      3 N         139.9452  140.4381  163.7189 N.am    1  UNL1       -0.2725
      4 C         140.8211  141.6533  163.7997 C.3     1  UNL1        0.1152
      5 C         140.9013  142.5985  162.6378 C.3     1  UNL1        0.1137
      6 N         140.1056  142.3287  161.3951 N.pl3   1  UNL1       -0.2897
      7 C         139.2298  141.1136  161.3144 C.3     1  UNL1        0.1137
      8 C         139.1496  140.1683  162.4763 C.3     1  UNL1        0.1152
      9 C         142.0015  139.1168  166.3106 C.ar    1  UNL1        0.1432
     10 C         142.7970  139.3867  167.5533 C.ar    1  UNL1        0.0384
     11 C         142.2518  140.3024  168.6088 C.ar    1  UNL1        0.0215
     12 C         140.9110  140.9483  168.4217 C.ar    1  UNL1        0.1061
     13 C         140.1155  140.6785  167.1790 C.ar    1  UNL1        0.0259
     14 C         140.6607  139.7627  166.1235 C.ar    1  UNL1        0.0887
     15 S         140.3658  141.8641  169.4772 S.O2    1  UNL1        0.0105
     16 C         139.8206  142.7799  170.5327 C.3     1  UNL1        0.1816
     17 O         141.4829  142.8305  169.2158 O.2     1  UNL1       -0.1686
     18 O         139.2488  140.8978  169.7386 O.2     1  UNL1       -0.1686
     19 O         142.5467  138.2010  165.2551 O.3     1  UNL1       -0.4702
     20 C         142.8007  138.4311  162.6798 C.3     1  UNL1        0.0566
     21 C         143.2629  138.7694  164.0661 C.3     1  UNL1        0.2599
     22 C         144.4415  139.6762  164.2633 C.3     1  UNL1        0.4340
     23 F         145.6199  140.5830  164.4605 F       1  UNL1       -0.1664
     24 F         145.0466  138.6836  165.2112 F       1  UNL1       -0.1664
     25 F         143.8363  140.6688  163.3155 F       1  UNL1       -0.1664
     26 C         140.1858  143.2740  160.2332 C.ar    1  UNL1        0.1318
     27 C         139.5429  142.9129  158.9269 C.ar    1  UNL1        0.0343
     28 C         139.6231  143.8582  157.7650 C.ar    1  UNL1        0.0083
     29 C         140.3462  145.1645  157.9094 C.ar    1  UNL1        0.0906
     30 C         140.9890  145.5255  159.2157 C.ar    1  UNL1        0.1041
     31 N         140.9088  144.5802  160.3776 N.ar    1  UNL1       -0.2292
     32 C         140.4264  146.1098  156.7475 C.3     1  UNL1        0.4200
     33 F         140.5065  147.0551  155.5856 F       1  UNL1       -0.1658
     34 F         141.3140  145.1426  156.0219 F       1  UNL1       -0.1658
     35 F         139.5387  147.0770  157.4731 F       1  UNL1       -0.1658
@<TRIPOS>BOND
     1    20    21    1
     2    21    19    1
     3    19     9    1
     4     9    10   ar
     5    10    11   ar
     6    11    12   ar
     7    12    15    1
     8    15    16    1
     9    15    17    2
    10    15    18    2
    11    12    13   ar
    12    13    14   ar
    13    14     1    1
    14     1     2    2
    15     1     3   am
    16     3     4    1
    17     4     5    1
    18     5     6    1
    19     6    26    1
    20    26    27   ar
    21    27    28   ar
    22    28    29   ar
    23    29    32    1
    24    32    33    1
    25    32    34    1
    26    32    35    1
    27    29    30   ar
    28    30    31   ar
    29     6     7    1
    30     7     8    1
    31    21    22    1
    32    22    23    1
    33    22    24    1
    34    22    25    1
    35    14     9   ar
    36     8     3    1
    37    31    26   ar
@<TRIPOS>MOLECULE
*****
 35 37 0 0 0
SMALL
GASTEIGER

@<TRIPOS>ATOM
      1 C         140.1347  139.0614  164.2199 C.2     1  UNL1        0.2521
      2 O         139.3710  137.7856  164.0223 O.2     1  UNL1       -0.2698
      3 N         140.1751  140.0883  163.1273 N.am    1  UNL1       -0.2725
      4 C         140.9389  141.3641  163.3250 C.3     1  UNL1        0.1152
      5 C         140.9794  142.3910  162.2324 C.3     1  UNL1        0.1137
      6 N         140.2560  142.1421  160.9421 N.pl3   1  UNL1       -0.2897
      7 C         139.4923  140.8664  160.7444 C.3     1  UNL1        0.1137
      8 C         139.4518  139.8394  161.8370 C.3     1  UNL1        0.1152
      9 C         142.2849  138.8746  165.6663 C.ar    1  UNL1        0.1432
     10 C         143.0081  139.1235  166.9566 C.ar    1  UNL1        0.0384
     11 C         142.3046  139.8080  168.0908 C.ar    1  UNL1        0.0215
     12 C         140.8779  140.2437  167.9347 C.ar    1  UNL1        0.1061
     13 C         140.1546  139.9948  166.6445 C.ar    1  UNL1        0.0259
     14 C         140.8581  139.3102  165.5103 C.ar    1  UNL1        0.0887
     15 S         140.1744  140.9283  169.0690 S.O2    1  UNL1        0.0105
     16 C         139.4709  141.6129  170.2032 C.3     1  UNL1        0.1816
     17 O         139.1572  139.8264  169.1032 O.2     1  UNL1       -0.1686
     18 O         141.1915  142.0303  169.0347 O.2     1  UNL1       -0.1686
     19 O         142.9884  138.1900  164.5321 O.3     1  UNL1       -0.4702
     20 C         143.4176  138.8352  162.0523 C.3     1  UNL1        0.0566
     21 C         143.7290  139.0007  163.5103 C.3     1  UNL1        0.2599
     22 C         144.7811  139.9769  163.9464 C.3     1  UNL1        0.4340
     23 F         145.8332  140.9531  164.3826 F       1  UNL1       -0.1664
     24 F         144.1270  141.0486  163.1257 F       1  UNL1       -0.1664
     25 F         145.4352  138.9053  164.7672 F       1  UNL1       -0.1664
     26 C         140.2964  143.1690  159.8495 C.ar    1  UNL1        0.1318
     27 C         141.1345  144.4027  160.0103 C.ar    1  UNL1        0.0343
     28 C         141.1750  145.4296  158.9177 C.ar    1  UNL1        0.0083
     29 C         140.3773  145.2229  157.6642 C.ar    1  UNL1        0.0906
     30 C         139.5393  143.9893  157.5034 C.ar    1  UNL1        0.1041
     31 N         139.4988  142.9623  158.5961 N.ar    1  UNL1       -0.2292
     32 C         140.4178  146.2498  156.5716 C.3     1  UNL1        0.4200
     33 F         140.4582  147.2767  155.4790 F       1  UNL1       -0.1658
     34 F         139.4990  147.1305  157.3654 F       1  UNL1       -0.1658
     35 F         141.3365  145.3690  155.7778 F       1  UNL1       -0.1658
@<TRIPOS>BOND
     1    20    21    1
     2    21    19    1
     3    19     9    1
     4     9    10   ar
     5    10    11   ar
     6    11    12   ar
     7    12    15    1
     8    15    16    1
     9    15    17    2
    10    15    18    2
    11    12    13   ar
    12    13    14   ar
    13    14     1    1
    14     1     2    2
    15     1     3   am
    16     3     4    1
    17     4     5    1
    18     5     6    1
    19     6    26    1
    20    26    27   ar
    21    27    28   ar
    22    28    29   ar
    23    29    32    1
    24    32    33    1
    25    32    34    1
    26    32    35    1
    27    29    30   ar
    28    30    31   ar
    29     6     7    1
    30     7     8    1
    31    21    22    1
    32    22    23    1
    33    22    24    1
    34    22    25    1
    35    14     9   ar
    36     8     3    1
    37    31    26   ar
@<TRIPOS>MOLECULE
*****
 35 37 0 0 0
SMALL
GASTEIGER

@<TRIPOS>ATOM
      1 C         144.2349  141.2153  164.2365 C.2     1  UNL1        0.2521
      2 O         145.6919  140.8601  164.2669 O.2     1  UNL1       -0.2698
      3 N         143.6723  141.9747  163.0717 N.am    1  UNL1       -0.2725
      4 C         142.2152  142.3300  163.0413 C.3     1  UNL1        0.1152
      5 C         141.6526  143.0894  161.8765 C.3     1  UNL1        0.1137
      6 N         142.5470  143.4935  160.7421 N.pl3   1  UNL1       -0.2897
      7 C         144.0040  143.1383  160.7726 C.3     1  UNL1        0.1137
      8 C         144.5666  142.3789  161.9374 C.3     1  UNL1        0.1152
      9 C         142.7118  139.4494  165.3818 C.ar    1  UNL1        0.1432
     10 C         141.8174  139.0453  166.5161 C.ar    1  UNL1        0.0384
     11 C         141.5518  140.0031  167.6396 C.ar    1  UNL1        0.0215
     12 C         142.1805  141.3648  167.6288 C.ar    1  UNL1        0.1061
     13 C         143.0749  141.7689  166.4944 C.ar    1  UNL1        0.0259
     14 C         143.3405  140.8112  165.3709 C.ar    1  UNL1        0.0887
     15 S         141.9149  142.3226  168.7522 S.O2    1  UNL1        0.0105
     16 C         141.6493  143.2803  169.8757 C.3     1  UNL1        0.1816
     17 O         143.3805  142.6309  168.8358 O.2     1  UNL1       -0.1686
     18 O         140.4494  142.0142  168.6686 O.2     1  UNL1       -0.1686
     19 O         142.9774  138.4917  164.2583 O.3     1  UNL1       -0.4702
     20 C         142.4386  138.8507  161.7422 C.3     1  UNL1        0.0566
     21 C         142.0177  138.3989  163.1092 C.3     1  UNL1        0.2599
     22 C         140.6372  137.8541  163.3271 C.3     1  UNL1        0.4340
     23 F         139.2567  137.3094  163.5450 F       1  UNL1       -0.1664
     24 F         140.0512  139.1061  162.7447 F       1  UNL1       -0.1664
     25 F         141.2231  136.6022  163.9094 F       1  UNL1       -0.1664
     26 C         141.9843  144.2529  159.5773 C.ar    1  UNL1        0.1318
     27 C         140.6384  144.9061  159.6874 C.ar    1  UNL1        0.0343
     28 C         140.0758  145.6655  158.5227 C.ar    1  UNL1        0.0083
     29 C         140.8591  145.7718  157.2478 C.ar    1  UNL1        0.0906
     30 C         142.2049  145.1187  157.1377 C.ar    1  UNL1        0.1041
     31 N         142.7675  144.3593  158.3025 N.ar    1  UNL1       -0.2292
     32 C         140.2964  146.5312  156.0830 C.3     1  UNL1        0.4200
     33 F         139.7338  147.2906  154.9182 F       1  UNL1       -0.1658
     34 F         139.2850  147.1699  156.9880 F       1  UNL1       -0.1658
     35 F         141.3078  145.8924  155.1780 F       1  UNL1       -0.1658
@<TRIPOS>BOND
     1    20    21    1
     2    21    19    1
     3    19     9    1
     4     9    10   ar
     5    10    11   ar
     6    11    12   ar
     7    12    15    1
     8    15    16    1
     9    15    17    2
    10    15    18    2
    11    12    13   ar
    12    13    14   ar
    13    14     1    1
    14     1     2    2
    15     1     3   am
    16     3     4    1
    17     4     5    1
    18     5     6    1
    19     6    26    1
    20    26    27   ar
    21    27    28   ar
    22    28    29   ar
    23    29    32    1
    24    32    33    1
    25    32    34    1
    26    32    35    1
    27    29    30   ar
    28    30    31   ar
    29     6     7    1
    30     7     8    1
    31    21    22    1
    32    22    23    1
    33    22    24    1
    34    22    25    1
    35    14     9   ar
    36     8     3    1
    37    31    26   ar
@<TRIPOS>MOLECULE
*****
 35 37 0 0 0
SMALL
GASTEIGER

@<TRIPOS>ATOM
      1 C         143.3275  142.0092  164.3665 C.2     1  UNL1        0.2521
      2 O         144.5329  142.9019  164.3736 O.2     1  UNL1       -0.2698
      3 N         142.9826  141.2244  163.1356 N.am    1  UNL1       -0.2725
      4 C         141.7772  140.3316  163.1287 C.3     1  UNL1        0.1152
      5 C         141.4323  139.5469  161.8978 C.3     1  UNL1        0.1137
      6 N         142.2928  139.6548  160.6738 N.pl3   1  UNL1       -0.2897
      7 C         143.4982  140.5475  160.6809 C.3     1  UNL1        0.1137
      8 C         143.8431  141.3323  161.9118 C.3     1  UNL1        0.1152
      9 C         141.2775  142.8005  165.7527 C.ar    1  UNL1        0.1432
     10 C         140.4171  142.6926  166.9766 C.ar    1  UNL1        0.0384
     11 C         140.7461  141.6853  168.0382 C.ar    1  UNL1        0.0215
     12 C         141.9356  140.7860  167.8760 C.ar    1  UNL1        0.1061
     13 C         142.7960  140.8940  166.6521 C.ar    1  UNL1        0.0259
     14 C         142.4670  141.9012  165.5905 C.ar    1  UNL1        0.0887
     15 S         142.2646  139.7787  168.9377 S.O2    1  UNL1        0.0105
     16 C         142.5936  138.7714  169.9993 C.3     1  UNL1        0.1816
     17 O         143.1254  139.0319  167.9623 O.2     1  UNL1       -0.1686
     18 O         141.4038  140.5255  169.9130 O.2     1  UNL1       -0.1686
     19 O         140.9485  143.8078  164.6910 O.3     1  UNL1       -0.4702
     20 C         139.6082  143.2206  162.5443 C.3     1  UNL1        0.0566
     21 C         139.6433  143.7244  163.9567 C.3     1  UNL1        0.2599
     22 C         138.3730  144.1447  164.6348 C.3     1  UNL1        0.4340
     23 F         137.1028  144.5650  165.3129 F       1  UNL1       -0.1664
     24 F         137.6868  142.9186  164.1095 F       1  UNL1       -0.1664
     25 F         139.0591  145.3708  165.1600 F       1  UNL1       -0.1664
     26 C         141.9479  138.8700  159.4429 C.ar    1  UNL1        0.1318
     27 C         140.5292  138.8203  158.9582 C.ar    1  UNL1        0.0343
     28 C         140.1843  138.0356  157.7273 C.ar    1  UNL1        0.0083
     29 C         141.2580  137.3004  156.9811 C.ar    1  UNL1        0.0906
     30 C         142.6766  137.3501  157.4659 C.ar    1  UNL1        0.1041
     31 N         143.0216  138.1349  158.6968 N.ar    1  UNL1       -0.2292
     32 C         140.9131  136.5156  155.7502 C.3     1  UNL1        0.4200
     33 F         140.5682  135.7308  154.5193 F       1  UNL1       -0.1658
     34 F         140.1539  137.6923  155.2127 F       1  UNL1       -0.1658
     35 F         141.6723  135.3389  156.2877 F       1  UNL1       -0.1658
@<TRIPOS>BOND
     1    20    21    1
     2    21    19    1
     3    19     9    1
     4     9    10   ar
     5    10    11   ar
     6    11    12   ar
     7    12    15    1
     8    15    16    1
     9    15    17    2
    10    15    18    2
    11    12    13   ar
    12    13    14   ar
    13    14     1    1
    14     1     2    2
    15     1     3   am
    16     3     4    1
    17     4     5    1
    18     5     6    1
    19     6    26    1
    20    26    27   ar
    21    27    28   ar
    22    28    29   ar
    23    29    32    1
    24    32    33    1
    25    32    34    1
    26    32    35    1
    27    29    30   ar
    28    30    31   ar
    29     6     7    1
    30     7     8    1
    31    21    22    1
    32    22    23    1
    33    22    24    1
    34    22    25    1
    35    14     9   ar
    36     8     3    1
    37    31    26   ar
@<TRIPOS>MOLECULE
*****
 35 37 0 0 0
SMALL
GASTEIGER

@<TRIPOS>ATOM
      1 C         142.9898  143.5852  163.3467 C.2     1  UNL1        0.2521
      2 O         143.8202  144.8322  163.2740 O.2     1  UNL1       -0.2698
      3 N         143.0166  142.5993  162.2165 N.am    1  UNL1       -0.2725
      4 C         142.1862  141.3522  162.2893 C.3     1  UNL1        0.1152
      5 C         142.2130  140.3663  161.1591 C.3     1  UNL1        0.1137
      6 N         143.0702  140.6275  159.9562 N.pl3   1  UNL1       -0.2897
      7 C         143.9006  141.8746  159.8834 C.3     1  UNL1        0.1137
      8 C         143.8738  142.8605  161.0136 C.3     1  UNL1        0.1152
      9 C         140.7164  143.8171  164.5827 C.ar    1  UNL1        0.1432
     10 C         139.8592  143.5559  165.7856 C.ar    1  UNL1        0.0384
     11 C         140.4183  142.8016  166.9554 C.ar    1  UNL1        0.0215
     12 C         141.8345  142.3085  166.9223 C.ar    1  UNL1        0.1061
     13 C         142.6917  142.5697  165.7194 C.ar    1  UNL1        0.0259
     14 C         142.1326  143.3240  164.5496 C.ar    1  UNL1        0.0887
     15 S         142.3936  141.5542  168.0922 S.O2    1  UNL1        0.0105
     16 C         142.9526  140.7999  169.2620 C.3     1  UNL1        0.1816
     17 O         141.3648  140.4811  167.8918 O.2     1  UNL1       -0.1686
     18 O         143.4223  142.6273  168.2925 O.2     1  UNL1       -0.1686
     19 O         140.1574  144.5715  163.4129 O.3     1  UNL1       -0.4702
     20 C         139.8102  143.9183  160.9224 C.3     1  UNL1        0.0566
     21 C         139.3771  143.8466  162.3567 C.3     1  UNL1        0.2599
     22 C         138.1636  143.0499  162.7348 C.3     1  UNL1        0.4340
     23 F         136.9502  142.2533  163.1128 F       1  UNL1       -0.1664
     24 F         138.9108  141.7795  162.4560 F       1  UNL1       -0.1664
     25 F         137.4164  144.3203  163.0135 F       1  UNL1       -0.1664
     26 C         143.0970  139.6416  158.8260 C.ar    1  UNL1        0.1318
     27 C         142.6580  138.2257  159.0553 C.ar    1  UNL1        0.0343
     28 C         142.6848  137.2398  157.9251 C.ar    1  UNL1        0.0083
     29 C         143.1506  137.6699  156.5656 C.ar    1  UNL1        0.0906
     30 C         143.5896  139.0857  156.3364 C.ar    1  UNL1        0.1041
     31 N         143.5628  140.0716  157.4665 N.ar    1  UNL1       -0.2292
     32 C         143.1774  136.6840  155.4355 C.3     1  UNL1        0.4200
     33 F         143.2042  135.6981  154.3053 F       1  UNL1       -0.1658
     34 F         144.6756  136.7529  155.4108 F       1  UNL1       -0.1658
     35 F         141.6792  136.6150  155.4601 F       1  UNL1       -0.1658
@<TRIPOS>BOND
     1    20    21    1
     2    21    19    1
     3    19     9    1
     4     9    10   ar
     5    10    11   ar
     6    11    12   ar
     7    12    15    1
     8    15    16    1
     9    15    17    2
    10    15    18    2
    11    12    13   ar
    12    13    14   ar
    13    14     1    1
    14     1     2    2
    15     1     3   am
    16     3     4    1
    17     4     5    1
    18     5     6    1
    19     6    26    1
    20    26    27   ar
    21    27    28   ar
    22    28    29   ar
    23    29    32    1
    24    32    33    1
    25    32    34    1
    26    32    35    1
    27    29    30   ar
    28    30    31   ar
    29     6     7    1
    30     7     8    1
    31    21    22    1
    32    22    23    1
    33    22    24    1
    34    22    25    1
    35    14     9   ar
    36     8     3    1
    37    31    26   ar
@<TRIPOS>MOLECULE
*****
 35 37 0 0 0
SMALL
GASTEIGER

@<TRIPOS>ATOM
      1 C         138.6705  141.9353  162.1567 C.2     1  UNL1        0.2521
      2 O         137.3575  142.6564  162.0790 O.2     1  UNL1       -0.2698
      3 N         139.0734  140.9911  161.0630 N.am    1  UNL1       -0.2725
      4 C         140.3865  140.2700  161.1407 C.3     1  UNL1        0.1152
      5 C         140.7894  139.3258  160.0470 C.3     1  UNL1        0.1137
      6 N         139.8793  139.1028  158.8756 N.pl3   1  UNL1       -0.2897
      7 C         138.5664  139.8239  158.7980 C.3     1  UNL1        0.1137
      8 C         138.1634  140.7681  159.8917 C.3     1  UNL1        0.1152
      9 C         139.3284  141.4409  164.6210 C.ar    1  UNL1        0.1432
     10 C         140.2384  141.6639  165.7923 C.ar    1  UNL1        0.0384
     11 C         141.4006  142.6044  165.6707 C.ar    1  UNL1        0.0215
     12 C         141.6528  143.3218  164.3778 C.ar    1  UNL1        0.1061
     13 C         140.7428  143.0988  163.2065 C.ar    1  UNL1        0.0259
     14 C         139.5805  142.1583  163.3281 C.ar    1  UNL1        0.0887
     15 S         142.8150  144.2623  164.2562 S.O2    1  UNL1        0.0105
     16 C         143.9772  145.2027  164.1346 C.3     1  UNL1        0.1816
     17 O         141.8980  145.3279  163.7333 O.2     1  UNL1       -0.1686
     18 O         143.7320  143.1966  164.7791 O.2     1  UNL1       -0.1686
     19 O         138.1661  140.5004  164.7426 O.3     1  UNL1       -0.4702
     20 C         138.0304  138.5420  166.4444 C.3     1  UNL1        0.0566
     21 C         138.4003  139.0592  165.0858 C.3     1  UNL1        0.2599
     22 C         139.0045  138.1350  164.0704 C.3     1  UNL1        0.4340
     23 F         139.6086  137.2109  163.0550 F       1  UNL1       -0.1664
     24 F         139.9680  137.6301  165.1032 F       1  UNL1       -0.1664
     25 F         138.0410  138.6399  163.0376 F       1  UNL1       -0.1664
     26 C         140.2823  138.1586  157.7820 C.ar    1  UNL1        0.1318
     27 C         141.6808  137.6180  157.7353 C.ar    1  UNL1        0.0343
     28 C         142.0838  136.6738  156.6416 C.ar    1  UNL1        0.0083
     29 C         141.0882  136.2702  155.5946 C.ar    1  UNL1        0.0906
     30 C         139.6898  136.8108  155.6413 C.ar    1  UNL1        0.1041
     31 N         139.2869  137.7550  156.7350 N.ar    1  UNL1       -0.2292
     32 C         141.4912  135.3260  154.5009 C.3     1  UNL1        0.4200
     33 F         141.8942  134.3819  153.4072 F       1  UNL1       -0.1658
     34 F         141.5843  136.4761  153.5424 F       1  UNL1       -0.1658
     35 F         141.3981  134.1760  155.4594 F       1  UNL1       -0.1658
@<TRIPOS>BOND
     1    20    21    1
     2    21    19    1
     3    19     9    1
     4     9    10   ar
     5    10    11   ar
     6    11    12   ar
     7    12    15    1
     8    15    16    1
     9    15    17    2
    10    15    18    2
    11    12    13   ar
    12    13    14   ar
    13    14     1    1
    14     1     2    2
    15     1     3   am
    16     3     4    1
    17     4     5    1
    18     5     6    1
    19     6    26    1
    20    26    27   ar
    21    27    28   ar
    22    28    29   ar
    23    29    32    1
    24    32    33    1
    25    32    34    1
    26    32    35    1
    27    29    30   ar
    28    30    31   ar
    29     6     7    1
    30     7     8    1
    31    21    22    1
    32    22    23    1
    33    22    24    1
    34    22    25    1
    35    14     9   ar
    36     8     3    1
    37    31    26   ar
