@<TRIPOS>MOLECULE
*****
 29 31 0 0 0
SMALL
GASTEIGER

@<TRIPOS>ATOM
      1 C         141.2001  140.2546  169.3417 C.ar    1  UNL1        0.1384
      2 C         142.4421  140.3686  168.5085 C.ar    1  UNL1        0.0366
      3 C         142.3698  140.1704  167.0234 C.ar    1  UNL1        0.0001
      4 C         141.0554  139.8581  166.3716 C.ar    1  UNL1       -0.0080
      5 C         139.8134  139.7441  167.2048 C.ar    1  UNL1       -0.0199
      6 C         139.8858  139.9424  168.6899 C.ar    1  UNL1        0.0324
      7 C         138.4990  139.4319  166.5530 C.3     1  UNL1        0.0477
      8 C         138.4266  139.2336  165.0679 C.3     1  UNL1        0.0984
      9 N         139.6687  139.3477  164.2347 N.am    1  UNL1       -0.2760
     10 C         139.5963  139.1494  162.7496 C.2     1  UNL1        0.2420
     11 O         140.8384  139.2634  161.9163 O.2     1  UNL1       -0.2734
     12 C         140.9831  139.6599  164.8865 C.3     1  UNL1        0.0975
     13 C         142.2251  139.7739  164.0532 C.3     1  UNL1        0.0224
     14 C         142.6151  141.0978  163.4656 C.3     1  UNL1        0.0021
     15 C         143.0771  138.5640  163.8075 C.3     1  UNL1        0.0021
     16 C         141.2803  141.8394  171.3989 C.3     1  UNL1        0.2525
     17 O         141.2725  140.4529  170.8268 O.3     1  UNL1       -0.4714
     18 C         138.2819  138.8371  162.0978 C.3     1  UNL1        0.1552
     19 N         137.2995  139.9375  161.8259 N.3     1  UNL1       -0.2879
     20 H         136.6337  139.9355  162.5987 H       1  UNL1        0.1238
     21 C         137.7794  141.3502  161.6715 C.3     1  UNL1        0.0961
     22 C         137.8076  142.2668  162.8586 C.3     1  UNL1        0.1027
     23 O         136.5884  141.4559  163.1844 O.3     1  UNL1       -0.3854
     24 C         139.0170  142.7592  162.1205 C.3     1  UNL1        0.0283
     25 C         139.8312  143.8867  162.6827 C.3     1  UNL1        0.0024
     26 C         139.4360  144.5216  163.9829 C.3     1  UNL1        0.0002
     27 C         138.2266  144.0291  164.7210 C.3     1  UNL1        0.0024
     28 C         137.4124  142.9017  164.1588 C.3     1  UNL1        0.0283
     29 H         136.4392  140.8009  162.4846 H       1  UNL1        0.2103
@<TRIPOS>BOND
     1    16    17    1
     2    17     1    1
     3     1     2   ar
     4     2     3   ar
     5     3     4   ar
     6     4     5   ar
     7     5     6   ar
     8     5     7    1
     9     7     8    1
    10     8     9    1
    11     9    10   am
    12    10    11    2
    13    10    18    1
    14    18    19    1
    15    19    21    1
    16    21    22    1
    17    22    23    1
    18    22    24    1
    19    24    25    1
    20    25    26    1
    21    26    27    1
    22    27    28    1
    23     9    12    1
    24    12    13    1
    25    13    14    1
    26    13    15    1
    27     6     1   ar
    28    28    22    1
    29    12     4    1
    30    19    20    1
    31    23    29    1
@<TRIPOS>MOLECULE
*****
 29 31 0 0 0
SMALL
GASTEIGER

@<TRIPOS>ATOM
      1 C         140.6536  140.0754  169.2041 C.ar    1  UNL1        0.1384
      2 C         139.4039  140.0334  168.3755 C.ar    1  UNL1        0.0366
      3 C         139.4830  139.6996  166.9153 C.ar    1  UNL1        0.0001
      4 C         140.8118  139.4076  166.2836 C.ar    1  UNL1       -0.0080
      5 C         142.0614  139.4496  167.1121 C.ar    1  UNL1       -0.0199
      6 C         141.9823  139.7834  168.5724 C.ar    1  UNL1        0.0324
      7 C         143.3903  139.1576  166.4804 C.3     1  UNL1        0.0477
      8 C         143.4694  138.8238  165.0202 C.3     1  UNL1        0.0984
      9 N         142.2197  138.7819  164.1917 N.am    1  UNL1       -0.2760
     10 C         142.2988  138.4480  162.7314 C.2     1  UNL1        0.2420
     11 O         141.0491  138.4061  161.9029 O.2     1  UNL1       -0.2734
     12 C         140.8909  139.0738  164.8234 C.3     1  UNL1        0.0975
     13 C         139.6412  139.0319  163.9948 C.3     1  UNL1        0.0224
     14 C         139.1514  140.2749  163.3129 C.3     1  UNL1        0.0021
     15 C         138.8813  137.7469  163.8482 C.3     1  UNL1        0.0021
     16 C         141.1232  141.7117  171.1667 C.3     1  UNL1        0.2525
     17 O         140.5745  140.4092  170.6643 O.3     1  UNL1       -0.4714
     18 C         143.6276  138.1561  162.0997 C.3     1  UNL1        0.1552
     19 N         144.5164  139.2843  161.6672 N.3     1  UNL1       -0.2879
     20 H         144.7492  139.1170  160.6883 H       1  UNL1        0.1238
     21 C         144.0304  140.7002  161.7608 C.3     1  UNL1        0.0961
     22 C         144.3200  141.5130  162.9879 C.3     1  UNL1        0.1027
     23 O         145.6822  140.9421  162.7261 O.3     1  UNL1       -0.3854
     24 C         142.8572  141.8016  162.8235 C.3     1  UNL1        0.0283
     25 C         142.1571  142.7047  163.7953 C.3     1  UNL1        0.0024
     26 C         142.9198  143.3192  164.9313 C.3     1  UNL1        0.0002
     27 C         144.3825  143.0306  165.0957 C.3     1  UNL1        0.0024
     28 C         145.0826  142.1275  164.1239 C.3     1  UNL1        0.0283
     29 H         145.6501  140.3773  161.9381 H       1  UNL1        0.2103
@<TRIPOS>BOND
     1    16    17    1
     2    17     1    1
     3     1     2   ar
     4     2     3   ar
     5     3     4   ar
     6     4     5   ar
     7     5     6   ar
     8     5     7    1
     9     7     8    1
    10     8     9    1
    11     9    10   am
    12    10    11    2
    13    10    18    1
    14    18    19    1
    15    19    21    1
    16    21    22    1
    17    22    23    1
    18    22    24    1
    19    24    25    1
    20    25    26    1
    21    26    27    1
    22    27    28    1
    23     9    12    1
    24    12    13    1
    25    13    14    1
    26    13    15    1
    27     6     1   ar
    28    28    22    1
    29    12     4    1
    30    19    20    1
    31    23    29    1
@<TRIPOS>MOLECULE
*****
 29 31 0 0 0
SMALL
GASTEIGER

@<TRIPOS>ATOM
      1 C         139.5406  140.1492  167.8724 C.ar    1  UNL1        0.1384
      2 C         139.0567  139.2445  166.7782 C.ar    1  UNL1        0.0366
      3 C         139.0313  139.7307  165.3594 C.ar    1  UNL1        0.0001
      4 C         139.4899  141.1215  165.0348 C.ar    1  UNL1       -0.0080
      5 C         139.9738  142.0261  166.1291 C.ar    1  UNL1       -0.0199
      6 C         139.9991  141.5400  167.5479 C.ar    1  UNL1        0.0324
      7 C         140.4323  143.4170  165.8046 C.3     1  UNL1        0.0477
      8 C         140.4069  143.9032  164.3858 C.3     1  UNL1        0.0984
      9 N         139.9230  142.9985  163.2915 N.am    1  UNL1       -0.2760
     10 C         139.8976  143.4846  161.8727 C.2     1  UNL1        0.2420
     11 O         139.4137  142.5800  160.7784 O.2     1  UNL1       -0.2734
     12 C         139.4645  141.6077  163.6160 C.3     1  UNL1        0.0975
     13 C         138.9806  140.7030  162.5218 C.3     1  UNL1        0.0224
     14 C         137.5311  140.7019  162.1356 C.3     1  UNL1        0.0021
     15 C         139.9461  139.7994  161.8137 C.3     1  UNL1        0.0021
     16 C         140.1922  140.5064  170.3620 C.3     1  UNL1        0.2525
     17 O         139.5660  139.6630  169.2912 O.3     1  UNL1       -0.4714
     18 C         140.3561  144.8755  161.5482 C.3     1  UNL1        0.1552
     19 N         141.8074  145.1432  161.2795 N.3     1  UNL1       -0.2879
     20 H         142.0670  145.9523  161.8438 H       1  UNL1        0.1238
     21 C         142.8292  144.0795  161.5519 C.3     1  UNL1        0.0961
     22 C         143.4376  143.9560  162.9174 C.3     1  UNL1        0.1027
     23 O         143.5287  145.4408  162.7249 O.3     1  UNL1       -0.3854
     24 C         143.1352  142.5141  162.6356 C.3     1  UNL1        0.0283
     25 C         143.4729  141.4644  163.6526 C.3     1  UNL1        0.0024
     26 C         144.1129  141.8566  164.9512 C.3     1  UNL1        0.0002
     27 C         144.4153  143.2985  165.2330 C.3     1  UNL1        0.0024
     28 C         144.0776  144.3482  164.2161 C.3     1  UNL1        0.0283
     29 H         143.1619  145.6777  161.8588 H       1  UNL1        0.2103
@<TRIPOS>BOND
     1    16    17    1
     2    17     1    1
     3     1     2   ar
     4     2     3   ar
     5     3     4   ar
     6     4     5   ar
     7     5     6   ar
     8     5     7    1
     9     7     8    1
    10     8     9    1
    11     9    10   am
    12    10    11    2
    13    10    18    1
    14    18    19    1
    15    19    21    1
    16    21    22    1
    17    22    23    1
    18    22    24    1
    19    24    25    1
    20    25    26    1
    21    26    27    1
    22    27    28    1
    23     9    12    1
    24    12    13    1
    25    13    14    1
    26    13    15    1
    27     6     1   ar
    28    28    22    1
    29    12     4    1
    30    19    20    1
    31    23    29    1
@<TRIPOS>MOLECULE
*****
 29 31 0 0 0
SMALL
GASTEIGER

@<TRIPOS>ATOM
      1 C         141.1159  142.5313  167.9668 C.ar    1  UNL1        0.1384
      2 C         142.5784  142.1982  167.9690 C.ar    1  UNL1        0.0366
      3 C         143.2444  141.7368  166.7067 C.ar    1  UNL1        0.0001
      4 C         142.4480  141.6084  165.4422 C.ar    1  UNL1       -0.0080
      5 C         140.9855  141.9415  165.4399 C.ar    1  UNL1       -0.0199
      6 C         140.3194  142.4029  166.7022 C.ar    1  UNL1        0.0324
      7 C         140.1889  141.8131  164.1753 C.3     1  UNL1        0.0477
      8 C         140.8550  141.3516  162.9130 C.3     1  UNL1        0.0984
      9 N         142.3176  141.0185  162.9153 N.am    1  UNL1       -0.2760
     10 C         142.9837  140.5570  161.6530 C.2     1  UNL1        0.2420
     11 O         144.4462  140.2240  161.6553 O.2     1  UNL1       -0.2734
     12 C         143.1141  141.1469  164.1799 C.3     1  UNL1        0.0975
     13 C         144.5766  140.8138  164.1821 C.3     1  UNL1        0.0224
     14 C         145.0265  139.4139  164.4785 C.3     1  UNL1        0.0021
     15 C         145.5892  141.8807  163.8880 C.3     1  UNL1        0.0021
     16 C         139.7740  141.9993  170.1269 C.3     1  UNL1        0.2525
     17 O         140.4498  142.9928  169.2291 O.3     1  UNL1       -0.4714
     18 C         142.1871  140.4287  160.3884 C.3     1  UNL1        0.1552
     19 N         141.5538  139.1168  160.0309 N.3     1  UNL1       -0.2879
     20 H         142.0492  138.7641  159.2121 H       1  UNL1        0.1238
     21 C         141.5237  138.0008  161.0327 C.3     1  UNL1        0.0961
     22 C         140.4151  137.9273  162.0405 C.3     1  UNL1        0.1027
     23 O         139.6160  138.1431  160.7896 O.3     1  UNL1       -0.3854
     24 C         141.5992  137.7370  162.9414 C.3     1  UNL1        0.0283
     25 C         141.3973  137.5482  164.4158 C.3     1  UNL1        0.0024
     26 C         140.0112  137.5497  164.9891 C.3     1  UNL1        0.0002
     27 C         138.8271  137.7400  164.0882 C.3     1  UNL1        0.0024
     28 C         139.0291  137.9288  162.6139 C.3     1  UNL1        0.0283
     29 H         140.2160  138.2119  160.0305 H       1  UNL1        0.2103
@<TRIPOS>BOND
     1    16    17    1
     2    17     1    1
     3     1     2   ar
     4     2     3   ar
     5     3     4   ar
     6     4     5   ar
     7     5     6   ar
     8     5     7    1
     9     7     8    1
    10     8     9    1
    11     9    10   am
    12    10    11    2
    13    10    18    1
    14    18    19    1
    15    19    21    1
    16    21    22    1
    17    22    23    1
    18    22    24    1
    19    24    25    1
    20    25    26    1
    21    26    27    1
    22    27    28    1
    23     9    12    1
    24    12    13    1
    25    13    14    1
    26    13    15    1
    27     6     1   ar
    28    28    22    1
    29    12     4    1
    30    19    20    1
    31    23    29    1
@<TRIPOS>MOLECULE
*****
 29 31 0 0 0
SMALL
GASTEIGER

@<TRIPOS>ATOM
      1 C         140.3350  140.8872  169.1518 C.ar    1  UNL1        0.1384
      2 C         140.8565  142.1983  168.6432 C.ar    1  UNL1        0.0366
      3 C         140.5947  142.6103  167.2249 C.ar    1  UNL1        0.0001
      4 C         139.8112  141.7112  166.3152 C.ar    1  UNL1       -0.0080
      5 C         139.2896  140.4000  166.8238 C.ar    1  UNL1       -0.0199
      6 C         139.5515  139.9880  168.2421 C.ar    1  UNL1        0.0324
      7 C         138.5061  139.5008  165.9140 C.3     1  UNL1        0.0477
      8 C         138.2442  139.9128  164.4957 C.3     1  UNL1        0.0984
      9 N         138.7659  141.2240  163.9871 N.am    1  UNL1       -0.2760
     10 C         138.5040  141.6360  162.5688 C.2     1  UNL1        0.2420
     11 O         139.0256  142.9472  162.0602 O.2     1  UNL1       -0.2734
     12 C         139.5493  142.1232  164.8968 C.3     1  UNL1        0.0975
     13 C         140.0709  143.4343  164.3882 C.3     1  UNL1        0.0224
     14 C         141.4243  143.5046  163.7452 C.3     1  UNL1        0.0021
     15 C         139.2391  144.6754  164.5226 C.3     1  UNL1        0.0021
     16 C         141.4855  141.3116  171.4422 C.3     1  UNL1        0.2525
     17 O         140.5968  140.4752  170.5702 O.3     1  UNL1       -0.4714
     18 C         137.7205  140.7368  161.6590 C.3     1  UNL1        0.1552
     19 N         138.4136  139.6330  160.9165 N.3     1  UNL1       -0.2879
     20 H         138.2838  139.8203  159.9222 H       1  UNL1        0.1238
     21 C         139.8798  139.3946  161.1244 C.3     1  UNL1        0.0961
     22 C         140.3440  138.4997  162.2351 C.3     1  UNL1        0.1027
     23 O         139.2907  137.6267  161.6202 O.3     1  UNL1       -0.3854
     24 C         141.2361  139.6836  162.4643 C.3     1  UNL1        0.0283
     25 C         142.2267  139.6693  163.5907 C.3     1  UNL1        0.0024
     26 C         142.3251  138.4713  164.4878 C.3     1  UNL1        0.0002
     27 C         141.4330  137.2874  164.2586 C.3     1  UNL1        0.0024
     28 C         140.4424  137.3016  163.1322 C.3     1  UNL1        0.0283
     29 H         138.8895  138.0864  160.8661 H       1  UNL1        0.2103
@<TRIPOS>BOND
     1    16    17    1
     2    17     1    1
     3     1     2   ar
     4     2     3   ar
     5     3     4   ar
     6     4     5   ar
     7     5     6   ar
     8     5     7    1
     9     7     8    1
    10     8     9    1
    11     9    10   am
    12    10    11    2
    13    10    18    1
    14    18    19    1
    15    19    21    1
    16    21    22    1
    17    22    23    1
    18    22    24    1
    19    24    25    1
    20    25    26    1
    21    26    27    1
    22    27    28    1
    23     9    12    1
    24    12    13    1
    25    13    14    1
    26    13    15    1
    27     6     1   ar
    28    28    22    1
    29    12     4    1
    30    19    20    1
    31    23    29    1
@<TRIPOS>MOLECULE
*****
 29 31 0 0 0
SMALL
GASTEIGER

@<TRIPOS>ATOM
      1 C         141.5993  141.4373  168.8354 C.ar    1  UNL1        0.1384
      2 C         142.8684  142.1596  168.4925 C.ar    1  UNL1        0.0366
      3 C         143.2218  142.4149  167.0573 C.ar    1  UNL1        0.0001
      4 C         142.3061  141.9480  165.9649 C.ar    1  UNL1       -0.0080
      5 C         141.0369  141.2257  166.3077 C.ar    1  UNL1       -0.0199
      6 C         140.6835  140.9704  167.7430 C.ar    1  UNL1        0.0324
      7 C         140.1211  140.7588  165.2153 C.3     1  UNL1        0.0477
      8 C         140.4745  141.0141  163.7801 C.3     1  UNL1        0.0984
      9 N         141.7437  141.7364  163.4373 N.am    1  UNL1       -0.2760
     10 C         142.0971  141.9917  162.0020 C.2     1  UNL1        0.2420
     11 O         143.3663  142.7140  161.6592 O.2     1  UNL1       -0.2734
     12 C         142.6595  142.2033  164.5296 C.3     1  UNL1        0.0975
     13 C         143.9286  142.9256  164.1868 C.3     1  UNL1        0.0224
     14 C         143.9261  144.4184  164.0409 C.3     1  UNL1        0.0021
     15 C         145.2004  142.1549  163.9898 C.3     1  UNL1        0.0021
     16 C         140.2883  140.0826  170.6231 C.3     1  UNL1        0.2525
     17 O         141.2459  141.1820  170.2706 O.3     1  UNL1       -0.4714
     18 C         141.1813  141.5248  160.9096 C.3     1  UNL1        0.1552
     19 N         140.0820  142.4196  160.4189 N.3     1  UNL1       -0.2879
     20 H         139.2176  141.8806  160.4724 H       1  UNL1        0.1238
     21 C         139.8190  143.7286  161.1024 C.3     1  UNL1        0.0961
     22 C         138.9099  143.7830  162.2943 C.3     1  UNL1        0.1027
     23 O         138.0142  143.0838  161.3152 O.3     1  UNL1       -0.3854
     24 C         140.1215  144.4634  162.8594 C.3     1  UNL1        0.0283
     25 C         140.1128  144.9553  164.2765 C.3     1  UNL1        0.0024
     26 C         138.8927  144.7669  165.1283 C.3     1  UNL1        0.0002
     27 C         137.6811  144.0866  164.5632 C.3     1  UNL1        0.0024
     28 C         137.6898  143.5946  163.1462 C.3     1  UNL1        0.0283
     29 H         138.4802  142.9745  160.4715 H       1  UNL1        0.2103
@<TRIPOS>BOND
     1    16    17    1
     2    17     1    1
     3     1     2   ar
     4     2     3   ar
     5     3     4   ar
     6     4     5   ar
     7     5     6   ar
     8     5     7    1
     9     7     8    1
    10     8     9    1
    11     9    10   am
    12    10    11    2
    13    10    18    1
    14    18    19    1
    15    19    21    1
    16    21    22    1
    17    22    23    1
    18    22    24    1
    19    24    25    1
    20    25    26    1
    21    26    27    1
    22    27    28    1
    23     9    12    1
    24    12    13    1
    25    13    14    1
    26    13    15    1
    27     6     1   ar
    28    28    22    1
    29    12     4    1
    30    19    20    1
    31    23    29    1
@<TRIPOS>MOLECULE
*****
 29 31 0 0 0
SMALL
GASTEIGER

@<TRIPOS>ATOM
      1 C         142.6580  140.8775  168.7190 C.ar    1  UNL1        0.1384
      2 C         141.8382  139.8325  168.0222 C.ar    1  UNL1        0.0366
      3 C         141.6090  139.9224  166.5425 C.ar    1  UNL1        0.0001
      4 C         142.1998  141.0574  165.7597 C.ar    1  UNL1       -0.0080
      5 C         143.0197  142.1024  166.4566 C.ar    1  UNL1       -0.0199
      6 C         143.2488  142.0125  167.9363 C.ar    1  UNL1        0.0324
      7 C         143.6105  143.2375  165.6738 C.3     1  UNL1        0.0477
      8 C         143.3813  143.3274  164.1941 C.3     1  UNL1        0.0984
      9 N         142.5614  142.2823  163.4973 N.am    1  UNL1       -0.2760
     10 C         142.3323  142.3722  162.0176 C.2     1  UNL1        0.2420
     11 O         141.5125  141.3272  161.3207 O.2     1  UNL1       -0.2734
     12 C         141.9707  141.1473  164.2800 C.3     1  UNL1        0.0975
     13 C         141.1508  140.1023  163.5832 C.3     1  UNL1        0.0224
     14 C         141.8156  138.8845  163.0130 C.3     1  UNL1        0.0021
     15 C         139.6661  140.2750  163.4565 C.3     1  UNL1        0.0021
     16 C         141.7974  141.1804  171.1516 C.3     1  UNL1        0.2525
     17 O         142.8871  140.7875  170.1987 O.3     1  UNL1       -0.4714
     18 C         142.9231  143.5073  161.2348 C.3     1  UNL1        0.1552
     19 N         142.3187  144.8770  161.3275 N.3     1  UNL1       -0.2879
     20 H         142.6135  145.3859  160.4942 H       1  UNL1        0.1238
     21 C         140.8304  145.0348  161.4274 C.3     1  UNL1        0.0961
     22 C         140.1548  144.9464  162.7637 C.3     1  UNL1        0.1027
     23 O         141.3048  145.8442  163.1121 O.3     1  UNL1       -0.3854
     24 C         139.2395  144.0792  161.9512 C.3     1  UNL1        0.0283
     25 C         138.0479  143.4355  162.5960 C.3     1  UNL1        0.0024
     26 C         137.7717  143.6588  164.0533 C.3     1  UNL1        0.0002
     27 C         138.6870  144.5260  164.8658 C.3     1  UNL1        0.0024
     28 C         139.8786  145.1697  164.2210 C.3     1  UNL1        0.0283
     29 H         141.8473  145.9960  162.3224 H       1  UNL1        0.2103
@<TRIPOS>BOND
     1    16    17    1
     2    17     1    1
     3     1     2   ar
     4     2     3   ar
     5     3     4   ar
     6     4     5   ar
     7     5     6   ar
     8     5     7    1
     9     7     8    1
    10     8     9    1
    11     9    10   am
    12    10    11    2
    13    10    18    1
    14    18    19    1
    15    19    21    1
    16    21    22    1
    17    22    23    1
    18    22    24    1
    19    24    25    1
    20    25    26    1
    21    26    27    1
    22    27    28    1
    23     9    12    1
    24    12    13    1
    25    13    14    1
    26    13    15    1
    27     6     1   ar
    28    28    22    1
    29    12     4    1
    30    19    20    1
    31    23    29    1
@<TRIPOS>MOLECULE
*****
 29 31 0 0 0
SMALL
GASTEIGER

@<TRIPOS>ATOM
      1 C         142.5984  140.7267  168.4303 C.ar    1  UNL1        0.1384
      2 C         142.6503  139.5541  167.4963 C.ar    1  UNL1        0.0366
      3 C         141.8796  139.5854  166.2098 C.ar    1  UNL1        0.0001
      4 C         141.0571  140.7892  165.8573 C.ar    1  UNL1       -0.0080
      5 C         141.0052  141.9617  166.7913 C.ar    1  UNL1       -0.0199
      6 C         141.7759  141.9305  168.0778 C.ar    1  UNL1        0.0324
      7 C         140.1827  143.1656  166.4388 C.3     1  UNL1        0.0477
      8 C         139.4120  143.1968  165.1523 C.3     1  UNL1        0.0984
      9 N         139.4638  142.0242  164.2183 N.am    1  UNL1       -0.2760
     10 C         138.6931  142.0554  162.9318 C.2     1  UNL1        0.2420
     11 O         138.7450  140.8829  161.9978 O.2     1  UNL1       -0.2734
     12 C         140.2864  140.8204  164.5708 C.3     1  UNL1        0.0975
     13 C         140.3382  139.6479  163.6368 C.3     1  UNL1        0.0224
     14 C         139.3447  138.5328  163.7770 C.3     1  UNL1        0.0021
     15 C         141.3836  139.5903  162.5626 C.3     1  UNL1        0.0021
     16 C         143.0414  139.6715  170.7627 C.3     1  UNL1        0.2525
     17 O         143.3691  140.6954  169.7168 O.3     1  UNL1       -0.4714
     18 C         137.8706  143.2593  162.5794 C.3     1  UNL1        0.1552
     19 N         138.5444  144.5264  162.1429 N.3     1  UNL1       -0.2879
     20 H         138.5474  145.1511  162.9493 H       1  UNL1        0.1238
     21 C         139.9499  144.4869  161.6205 C.3     1  UNL1        0.0961
     22 C         141.0986  144.7963  162.5341 C.3     1  UNL1        0.1027
     23 O         140.1472  145.8847  162.9341 O.3     1  UNL1       -0.3854
     24 C         141.6511  143.6004  161.8167 C.3     1  UNL1        0.0283
     25 C         143.0219  143.0919  162.1519 C.3     1  UNL1        0.0024
     26 C         143.8402  143.7793  163.2044 C.3     1  UNL1        0.0002
     27 C         143.2877  144.9752  163.9218 C.3     1  UNL1        0.0024
     28 C         141.9169  145.4837  163.5866 C.3     1  UNL1        0.0283
     29 H         139.3332  145.8108  162.4117 H       1  UNL1        0.2103
@<TRIPOS>BOND
     1    16    17    1
     2    17     1    1
     3     1     2   ar
     4     2     3   ar
     5     3     4   ar
     6     4     5   ar
     7     5     6   ar
     8     5     7    1
     9     7     8    1
    10     8     9    1
    11     9    10   am
    12    10    11    2
    13    10    18    1
    14    18    19    1
    15    19    21    1
    16    21    22    1
    17    22    23    1
    18    22    24    1
    19    24    25    1
    20    25    26    1
    21    26    27    1
    22    27    28    1
    23     9    12    1
    24    12    13    1
    25    13    14    1
    26    13    15    1
    27     6     1   ar
    28    28    22    1
    29    12     4    1
    30    19    20    1
    31    23    29    1
@<TRIPOS>MOLECULE
*****
 29 31 0 0 0
SMALL
GASTEIGER

@<TRIPOS>ATOM
      1 C         142.7777  141.5333  168.6820 C.ar    1  UNL1        0.1384
      2 C         141.6686  140.5235  168.6847 C.ar    1  UNL1        0.0366
      3 C         140.9792  140.1632  167.4022 C.ar    1  UNL1        0.0001
      4 C         141.3989  140.8127  166.1170 C.ar    1  UNL1       -0.0080
      5 C         142.5080  141.8225  166.1142 C.ar    1  UNL1       -0.0199
      6 C         143.1974  142.1828  167.3968 C.ar    1  UNL1        0.0324
      7 C         142.9278  142.4721  164.8289 C.3     1  UNL1        0.0477
      8 C         142.2384  142.1118  163.5464 C.3     1  UNL1        0.0984
      9 N         141.1292  141.1019  163.5492 N.am    1  UNL1       -0.2760
     10 C         140.4398  140.7416  162.2666 C.2     1  UNL1        0.2420
     11 O         139.3307  139.7318  162.2694 O.2     1  UNL1       -0.2734
     12 C         140.7095  140.4524  164.8344 C.3     1  UNL1        0.0975
     13 C         139.6004  139.4426  164.8371 C.3     1  UNL1        0.0224
     14 C         139.9092  137.9888  164.6338 C.3     1  UNL1        0.0021
     15 C         138.1824  139.8864  165.0432 C.3     1  UNL1        0.0021
     16 C         143.1247  143.1745  170.6659 C.3     1  UNL1        0.2525
     17 O         143.4671  141.8936  169.9646 O.3     1  UNL1       -0.4714
     18 C         140.8596  141.3912  160.9813 C.3     1  UNL1        0.1552
     19 N         139.9634  142.3972  160.3218 N.3     1  UNL1       -0.2879
     20 H         139.0633  141.9397  160.1774 H       1  UNL1        0.1238
     21 C         139.6804  143.7062  160.9972 C.3     1  UNL1        0.0961
     22 C         138.8309  143.7444  162.2329 C.3     1  UNL1        0.1027
     23 O         137.9107  143.0058  161.3068 O.3     1  UNL1       -0.3854
     24 C         140.0462  144.4697  162.7298 C.3     1  UNL1        0.0283
     25 C         140.0923  144.9768  164.1408 C.3     1  UNL1        0.0024
     26 C         138.9232  144.7585  165.0548 C.3     1  UNL1        0.0002
     27 C         137.7079  144.0331  164.5578 C.3     1  UNL1        0.0024
     28 C         137.6618  143.5261  163.1468 C.3     1  UNL1        0.0283
     29 H         138.3372  142.9024  160.4417 H       1  UNL1        0.2103
@<TRIPOS>BOND
     1    16    17    1
     2    17     1    1
     3     1     2   ar
     4     2     3   ar
     5     3     4   ar
     6     4     5   ar
     7     5     6   ar
     8     5     7    1
     9     7     8    1
    10     8     9    1
    11     9    10   am
    12    10    11    2
    13    10    18    1
    14    18    19    1
    15    19    21    1
    16    21    22    1
    17    22    23    1
    18    22    24    1
    19    24    25    1
    20    25    26    1
    21    26    27    1
    22    27    28    1
    23     9    12    1
    24    12    13    1
    25    13    14    1
    26    13    15    1
    27     6     1   ar
    28    28    22    1
    29    12     4    1
    30    19    20    1
    31    23    29    1
