@<TRIPOS>MOLECULE
*****
 45 50 0 0 0
SMALL
GASTEIGER

@<TRIPOS>ATOM
      1 N         140.0408  141.8439  156.5072 N.am    1  UNL1       -0.2222
      2 C         140.2800  140.5229  155.8378 C.2     1  UNL1        0.3219
      3 O         139.9415  140.1802  154.4172 O.2     1  UNL1       -0.2512
      4 N         140.9171  139.6048  156.8384 N.am    1  UNL1       -0.1907
      5 C         141.0717  140.3583  158.1262 C.2     1  UNL1        0.2529
      6 O         141.6639  139.8223  159.3958 O.2     1  UNL1       -0.2724
      7 C         140.5301  141.7422  157.9215 C.3     1  UNL1        0.1391
      8 C         139.9560  143.0825  157.5694 C.3     1  UNL1        0.0449
      9 C         139.9116  144.1730  158.5983 C.3     1  UNL1        0.0746
     10 N         140.4411  143.9232  159.9793 N.3     1  UNL1       -0.2676
     11 C         141.0151  142.5829  160.3314 C.3     1  UNL1        0.0746
     12 C         141.0596  141.4924  159.3025 C.3     1  UNL1        0.0449
     13 C         139.6709  145.2960  154.5849 C.ar    1  UNL1        0.2293
     14 C         140.2906  144.0859  155.2186 C.ar    1  UNL1        0.0924
     15 C         139.4211  143.0540  155.8735 C.ar    1  UNL1        0.1453
     16 N         137.9318  143.2321  155.8947 N.ar    1  UNL1       -0.2084
     17 C         137.3121  144.4421  155.2610 C.ar    1  UNL1        0.2027
     18 N         138.1817  145.4742  154.6061 N.ar    1  UNL1       -0.1892
     19 C         140.2520  147.7867  154.1281 C.3     1  UNL1        0.2542
     20 O         140.5403  146.3280  153.9299 O.3     1  UNL1       -0.4560
     21 C         141.3276  138.1830  156.5942 C.ar    1  UNL1        0.0622
     22 C         140.4026  137.2488  155.8719 C.ar    1  UNL1        0.0154
     23 C         140.8131  135.8269  155.6277 C.ar    1  UNL1        0.0013
     24 C         142.1486  135.3392  156.1057 C.ar    1  UNL1        0.0001
     25 C         143.0737  136.2733  156.8280 C.ar    1  UNL1        0.0013
     26 C         142.6631  137.6952  157.0722 C.ar    1  UNL1        0.0154
     27 C         142.5591  133.9172  155.8615 C.ar    1  UNL1        0.0000
     28 C         141.5458  132.9131  155.3978 C.ar    1  UNL1        0.0001
     29 C         141.9564  131.4912  155.1536 C.ar    1  UNL1        0.0045
     30 C         143.3802  131.0735  155.3730 C.ar    1  UNL1        0.0536
     31 C         144.3935  132.0776  155.8367 C.ar    1  UNL1        0.0045
     32 C         143.9830  133.4994  156.0809 C.ar    1  UNL1        0.0001
     33 C         143.7907  129.6516  155.1288 C.2     1  UNL1        0.2491
     34 O         144.2291  129.2220  153.7601 O.2     1  UNL1       -0.2699
     35 N         143.7629  128.6592  156.2533 N.am    1  UNL1       -0.2726
     36 C         144.1734  127.2373  156.0090 C.3     1  UNL1        0.1152
     37 C         143.3246  129.0886  157.6220 C.3     1  UNL1        0.1152
     38 C         140.3966  145.0139  161.0082 C.3     1  UNL1        0.1183
     39 C         139.6912  144.7863  162.3123 C.ar    1  UNL1        0.0712
     40 N         138.2387  144.4120  162.3240 N.ar    1  UNL1       -0.2471
     41 C         137.5333  144.1844  163.6281 C.ar    1  UNL1        0.0985
     42 C         138.2804  144.3313  164.9205 C.ar    1  UNL1        0.0203
     43 C         139.7329  144.7057  164.9088 C.ar    1  UNL1       -0.0015
     44 C         140.4383  144.9332  163.6047 C.ar    1  UNL1       -0.0069
     45 C         141.8908  145.3076  163.5930 C.3     1  UNL1        0.0323
@<TRIPOS>BOND
     1    19    20    1
     2    20    13    1
     3    13    14   ar
     4    14    15   ar
     5    15     1    1
     6     1     2   am
     7     2     3    2
     8     2     4   am
     9     4    21    1
    10    21    22   ar
    11    22    23   ar
    12    23    24   ar
    13    24    27    1
    14    27    28   ar
    15    28    29   ar
    16    29    30   ar
    17    30    33    1
    18    33    34    2
    19    33    35   am
    20    35    36    1
    21    35    37    1
    22    30    31   ar
    23    31    32   ar
    24    24    25   ar
    25    25    26   ar
    26     4     5   am
    27     5     6    2
    28     5     7    1
    29     7     8    1
    30     8     9    1
    31     9    10    1
    32    10    38    1
    33    38    39    1
    34    39    40   ar
    35    40    41   ar
    36    41    42   ar
    37    42    43   ar
    38    43    44   ar
    39    44    45    1
    40    10    11    1
    41    11    12    1
    42    15    16   ar
    43    16    17   ar
    44    17    18   ar
    45    18    13   ar
    46     7     1    1
    47    44    39   ar
    48    26    21   ar
    49    12     7    1
    50    32    27   ar
@<TRIPOS>MOLECULE
*****
 45 50 0 0 0
SMALL
GASTEIGER

@<TRIPOS>ATOM
      1 N         138.6370  142.6218  157.1377 N.am    1  UNL1       -0.2222
      2 C         138.5625  141.9691  158.4863 C.2     1  UNL1        0.3219
      3 O         137.9306  140.6431  158.7903 O.2     1  UNL1       -0.2512
      4 N         139.2310  142.8752  159.4773 N.am    1  UNL1       -0.1907
      5 C         139.7186  144.0878  158.7414 C.2     1  UNL1        0.2529
      6 O         140.4457  145.2526  159.3452 O.2     1  UNL1       -0.2724
      7 C         139.3515  143.9313  157.2953 C.3     1  UNL1        0.1391
      8 C         138.9204  143.6369  155.8892 C.3     1  UNL1        0.0449
      9 C         139.2159  144.6176  154.7933 C.3     1  UNL1        0.0746
     10 N         139.9425  145.8926  155.1037 N.3     1  UNL1       -0.2676
     11 C         140.3737  146.1869  156.5099 C.3     1  UNL1        0.0746
     12 C         140.0782  145.2063  157.6057 C.3     1  UNL1        0.0449
     13 C         136.0839  141.6178  154.2701 C.ar    1  UNL1        0.2293
     14 C         136.6284  142.1765  155.5512 C.ar    1  UNL1        0.0924
     15 C         138.0926  142.0631  155.8565 C.ar    1  UNL1        0.1453
     16 N         139.0124  141.3911  154.8806 N.ar    1  UNL1       -0.2084
     17 C         138.4680  140.8324  153.5995 C.ar    1  UNL1        0.2027
     18 N         137.0037  140.9458  153.2941 N.ar    1  UNL1       -0.1892
     19 C         133.6085  141.1781  154.9247 C.3     1  UNL1        0.2542
     20 O         134.6198  141.7311  153.9647 O.3     1  UNL1       -0.4560
     21 C         139.3849  142.6144  160.9464 C.ar    1  UNL1        0.0622
     22 C         138.2380  142.8723  161.8781 C.ar    1  UNL1        0.0154
     23 C         138.3919  142.6115  163.3472 C.ar    1  UNL1        0.0013
     24 C         139.6926  142.0928  163.8847 C.ar    1  UNL1        0.0001
     25 C         140.8396  141.8348  162.9530 C.ar    1  UNL1        0.0013
     26 C         140.6857  142.0956  161.4838 C.ar    1  UNL1        0.0154
     27 C         139.8465  141.8320  165.3538 C.ar    1  UNL1        0.0000
     28 C         140.2987  142.9322  166.2675 C.ar    1  UNL1        0.0001
     29 C         140.4526  142.6714  167.7366 C.ar    1  UNL1        0.0045
     30 C         140.1542  141.3103  168.2919 C.ar    1  UNL1        0.0536
     31 C         139.7020  140.2100  167.3782 C.ar    1  UNL1        0.0045
     32 C         139.5481  140.4708  165.9092 C.ar    1  UNL1        0.0001
     33 C         140.3081  141.0495  169.7611 C.2     1  UNL1        0.2491
     34 O         139.0965  140.9918  170.6435 O.2     1  UNL1       -0.2699
     35 N         141.6736  140.8463  170.3478 N.am    1  UNL1       -0.2726
     36 C         141.8274  140.5855  171.8169 C.3     1  UNL1        0.1152
     37 C         142.8852  140.9040  169.4654 C.3     1  UNL1        0.1152
     38 C         140.2380  146.8733  154.0077 C.3     1  UNL1        0.1183
     39 C         139.8391  148.3112  154.1603 C.ar    1  UNL1        0.0712
     40 N         139.0064  148.7382  155.3326 N.ar    1  UNL1       -0.2471
     41 C         138.6075  150.1761  155.4851 C.ar    1  UNL1        0.0985
     42 C         139.0413  151.1870  154.4654 C.ar    1  UNL1        0.0203
     43 C         139.8740  150.7600  153.2931 C.ar    1  UNL1       -0.0015
     44 C         140.2729  149.3222  153.1405 C.ar    1  UNL1       -0.0069
     45 C         141.1056  148.8952  151.9683 C.3     1  UNL1        0.0323
@<TRIPOS>BOND
     1    19    20    1
     2    20    13    1
     3    13    14   ar
     4    14    15   ar
     5    15     1    1
     6     1     2   am
     7     2     3    2
     8     2     4   am
     9     4    21    1
    10    21    22   ar
    11    22    23   ar
    12    23    24   ar
    13    24    27    1
    14    27    28   ar
    15    28    29   ar
    16    29    30   ar
    17    30    33    1
    18    33    34    2
    19    33    35   am
    20    35    36    1
    21    35    37    1
    22    30    31   ar
    23    31    32   ar
    24    24    25   ar
    25    25    26   ar
    26     4     5   am
    27     5     6    2
    28     5     7    1
    29     7     8    1
    30     8     9    1
    31     9    10    1
    32    10    38    1
    33    38    39    1
    34    39    40   ar
    35    40    41   ar
    36    41    42   ar
    37    42    43   ar
    38    43    44   ar
    39    44    45    1
    40    10    11    1
    41    11    12    1
    42    15    16   ar
    43    16    17   ar
    44    17    18   ar
    45    18    13   ar
    46     7     1    1
    47    44    39   ar
    48    26    21   ar
    49    12     7    1
    50    32    27   ar
@<TRIPOS>MOLECULE
*****
 45 50 0 0 0
SMALL
GASTEIGER

@<TRIPOS>ATOM
      1 N         139.9633  144.6023  157.4504 N.am    1  UNL1       -0.2222
      2 C         140.5442  144.7803  158.8219 C.2     1  UNL1        0.3219
      3 O         141.4867  145.8674  159.2460 O.2     1  UNL1       -0.2512
      4 N         140.0171  143.6801  159.6949 N.am    1  UNL1       -0.1907
      5 C         139.1105  142.8223  158.8629 C.2     1  UNL1        0.2529
      6 O         138.3676  141.6078  159.3351 O.2     1  UNL1       -0.2724
      7 C         139.0772  143.3922  157.4757 C.3     1  UNL1        0.1391
      8 C         139.1427  144.0727  156.1405 C.3     1  UNL1        0.0449
      9 C         138.3606  143.5281  154.9822 C.3     1  UNL1        0.0746
     10 N         137.5132  142.3032  155.1590 N.3     1  UNL1       -0.2676
     11 C         137.4477  141.6227  156.4941 C.3     1  UNL1        0.0746
     12 C         138.2298  142.1673  157.6525 C.3     1  UNL1        0.0449
     13 C         139.6809  147.6107  154.8776 C.ar    1  UNL1        0.2293
     14 C         139.4213  146.7327  156.0657 C.ar    1  UNL1        0.0924
     15 C         140.2229  145.4803  156.2622 C.ar    1  UNL1        0.1453
     16 N         141.2842  145.1058  155.2705 N.ar    1  UNL1       -0.2084
     17 C         141.5439  145.9836  154.0824 C.ar    1  UNL1        0.2027
     18 N         140.7422  147.2362  153.8859 N.ar    1  UNL1       -0.1892
     19 C         138.6230  149.7793  155.8408 C.3     1  UNL1        0.2542
     20 O         138.8793  148.8632  154.6810 O.3     1  UNL1       -0.4560
     21 C         140.3400  143.4741  161.1450 C.ar    1  UNL1        0.0622
     22 C         139.8438  144.4504  162.1700 C.ar    1  UNL1        0.0154
     23 C         140.1667  144.2443  163.6203 C.ar    1  UNL1        0.0013
     24 C         140.9857  143.0619  164.0456 C.ar    1  UNL1        0.0001
     25 C         141.4820  142.0855  163.0207 C.ar    1  UNL1        0.0013
     26 C         141.1591  142.2916  161.5704 C.ar    1  UNL1        0.0154
     27 C         141.3086  142.8558  165.4959 C.ar    1  UNL1        0.0000
     28 C         142.7055  142.4991  165.9099 C.ar    1  UNL1        0.0001
     29 C         143.0284  142.2930  167.3602 C.ar    1  UNL1        0.0045
     30 C         141.9543  142.4436  168.3964 C.ar    1  UNL1        0.0536
     31 C         140.5574  142.8003  167.9824 C.ar    1  UNL1        0.0045
     32 C         140.2345  143.0064  166.5322 C.ar    1  UNL1        0.0001
     33 C         142.2771  142.2375  169.8467 C.2     1  UNL1        0.2491
     34 O         142.7242  143.3964  170.6876 O.2     1  UNL1       -0.2699
     35 N         142.1530  140.8724  170.4561 N.am    1  UNL1       -0.2726
     36 C         142.4759  140.6664  171.9063 C.3     1  UNL1        0.1152
     37 C         141.7060  139.7135  169.6153 C.3     1  UNL1        0.1152
     38 C         136.7311  141.7586  154.0005 C.3     1  UNL1        0.1183
     39 C         137.0391  140.3923  153.4637 C.ar    1  UNL1        0.0712
     40 N         138.1762  140.2021  152.5042 N.ar    1  UNL1       -0.2471
     41 C         138.4841  138.8357  151.9674 C.ar    1  UNL1        0.0985
     42 C         137.6549  137.6594  152.3902 C.ar    1  UNL1        0.0203
     43 C         136.5178  137.8496  153.3497 C.ar    1  UNL1       -0.0015
     44 C         136.2098  139.2159  153.8865 C.ar    1  UNL1       -0.0069
     45 C         135.0727  139.4060  154.8461 C.3     1  UNL1        0.0323
@<TRIPOS>BOND
     1    19    20    1
     2    20    13    1
     3    13    14   ar
     4    14    15   ar
     5    15     1    1
     6     1     2   am
     7     2     3    2
     8     2     4   am
     9     4    21    1
    10    21    22   ar
    11    22    23   ar
    12    23    24   ar
    13    24    27    1
    14    27    28   ar
    15    28    29   ar
    16    29    30   ar
    17    30    33    1
    18    33    34    2
    19    33    35   am
    20    35    36    1
    21    35    37    1
    22    30    31   ar
    23    31    32   ar
    24    24    25   ar
    25    25    26   ar
    26     4     5   am
    27     5     6    2
    28     5     7    1
    29     7     8    1
    30     8     9    1
    31     9    10    1
    32    10    38    1
    33    38    39    1
    34    39    40   ar
    35    40    41   ar
    36    41    42   ar
    37    42    43   ar
    38    43    44   ar
    39    44    45    1
    40    10    11    1
    41    11    12    1
    42    15    16   ar
    43    16    17   ar
    44    17    18   ar
    45    18    13   ar
    46     7     1    1
    47    44    39   ar
    48    26    21   ar
    49    12     7    1
    50    32    27   ar
@<TRIPOS>MOLECULE
*****
 45 50 0 0 0
SMALL
GASTEIGER

@<TRIPOS>ATOM
      1 N         138.6399  142.9920  157.0500 N.am    1  UNL1       -0.2222
      2 C         138.5504  142.3212  158.3888 C.2     1  UNL1        0.3219
      3 O         137.8606  141.0213  158.6793 O.2     1  UNL1       -0.2512
      4 N         139.2718  143.1787  159.3860 N.am    1  UNL1       -0.1907
      5 C         139.8071  144.3793  158.6636 C.2     1  UNL1        0.2529
      6 O         140.5947  145.4988  159.2770 O.2     1  UNL1       -0.2724
      7 C         139.4166  144.2640  157.2198 C.3     1  UNL1        0.1391
      8 C         138.9561  144.0133  155.8145 C.3     1  UNL1        0.0449
      9 C         139.2845  144.9971  154.7309 C.3     1  UNL1        0.0746
     10 N         140.0735  146.2316  155.0527 N.3     1  UNL1       -0.2676
     11 C         140.5340  146.4823  156.4581 C.3     1  UNL1        0.0746
     12 C         140.2056  145.4985  157.5416 C.3     1  UNL1        0.0449
     13 C         138.2566  141.0215  153.6266 C.ar    1  UNL1        0.2293
     14 C         138.8412  141.5330  154.9098 C.ar    1  UNL1        0.0924
     15 C         138.0553  142.4805  155.7668 C.ar    1  UNL1        0.1453
     16 N         136.6848  142.9166  155.3406 N.ar    1  UNL1       -0.2084
     17 C         136.1002  142.4052  154.0575 C.ar    1  UNL1        0.2027
     18 N         136.8861  141.4576  153.2004 N.ar    1  UNL1       -0.1892
     19 C         138.4881  138.7177  152.4483 C.3     1  UNL1        0.2542
     20 O         139.0424  140.0740  152.7695 O.3     1  UNL1       -0.4560
     21 C         139.4301  142.8868  160.8487 C.ar    1  UNL1        0.0622
     22 C         140.7286  142.3457  161.3693 C.ar    1  UNL1        0.0154
     23 C         140.8869  142.0537  162.8321 C.ar    1  UNL1        0.0013
     24 C         139.7467  142.3029  163.7743 C.ar    1  UNL1        0.0001
     25 C         138.4481  142.8441  163.2537 C.ar    1  UNL1        0.0013
     26 C         138.2899  143.1360  161.7909 C.ar    1  UNL1        0.0154
     27 C         139.9050  142.0110  165.2371 C.ar    1  UNL1        0.0000
     28 C         139.7218  140.6122  165.7468 C.ar    1  UNL1        0.0001
     29 C         139.8801  140.3203  167.2096 C.ar    1  UNL1        0.0045
     30 C         140.2216  141.4272  168.1626 C.ar    1  UNL1        0.0536
     31 C         140.4047  142.8260  167.6528 C.ar    1  UNL1        0.0045
     32 C         140.2464  143.1179  166.1901 C.ar    1  UNL1        0.0001
     33 C         140.3798  141.1353  169.6254 C.2     1  UNL1        0.2491
     34 O         139.1690  141.0289  170.5043 O.2     1  UNL1       -0.2699
     35 N         141.7491  140.9497  170.2093 N.am    1  UNL1       -0.2726
     36 C         141.9073  140.6578  171.6721 C.3     1  UNL1        0.1152
     37 C         142.9600  141.0560  169.3305 C.3     1  UNL1        0.1152
     38 C         140.4020  147.2155  153.9691 C.3     1  UNL1        0.1183
     39 C         139.9705  148.6462  154.0990 C.ar    1  UNL1        0.0712
     40 N         139.0750  149.0598  155.2291 N.ar    1  UNL1       -0.2471
     41 C         138.6435  150.4905  155.3590 C.ar    1  UNL1        0.0985
     42 C         139.1076  151.5076  154.3589 C.ar    1  UNL1        0.0203
     43 C         140.0031  151.0940  153.2289 C.ar    1  UNL1       -0.0015
     44 C         140.4346  149.6633  153.0989 C.ar    1  UNL1       -0.0069
     45 C         141.3301  149.2497  151.9689 C.3     1  UNL1        0.0323
@<TRIPOS>BOND
     1    19    20    1
     2    20    13    1
     3    13    14   ar
     4    14    15   ar
     5    15     1    1
     6     1     2   am
     7     2     3    2
     8     2     4   am
     9     4    21    1
    10    21    22   ar
    11    22    23   ar
    12    23    24   ar
    13    24    27    1
    14    27    28   ar
    15    28    29   ar
    16    29    30   ar
    17    30    33    1
    18    33    34    2
    19    33    35   am
    20    35    36    1
    21    35    37    1
    22    30    31   ar
    23    31    32   ar
    24    24    25   ar
    25    25    26   ar
    26     4     5   am
    27     5     6    2
    28     5     7    1
    29     7     8    1
    30     8     9    1
    31     9    10    1
    32    10    38    1
    33    38    39    1
    34    39    40   ar
    35    40    41   ar
    36    41    42   ar
    37    42    43   ar
    38    43    44   ar
    39    44    45    1
    40    10    11    1
    41    11    12    1
    42    15    16   ar
    43    16    17   ar
    44    17    18   ar
    45    18    13   ar
    46     7     1    1
    47    44    39   ar
    48    26    21   ar
    49    12     7    1
    50    32    27   ar
@<TRIPOS>MOLECULE
*****
 45 50 0 0 0
SMALL
GASTEIGER

@<TRIPOS>ATOM
      1 N         142.0802  143.9736  156.5920 N.am    1  UNL1       -0.2222
      2 C         142.4347  143.2008  157.8279 C.2     1  UNL1        0.3219
      3 O         143.3731  142.0327  157.8984 O.2     1  UNL1       -0.2512
      4 N         141.6861  143.8013  158.9807 N.am    1  UNL1       -0.1907
      5 C         140.8689  144.9451  158.4574 C.2     1  UNL1        0.2529
      6 O         139.9665  145.8275  159.2680 O.2     1  UNL1       -0.2724
      7 C         141.1125  145.0517  156.9811 C.3     1  UNL1        0.1391
      8 C         141.4528  145.0355  155.5203 C.3     1  UNL1        0.0449
      9 C         140.8368  146.0431  154.5956 C.3     1  UNL1        0.0746
     10 N         139.8804  147.0668  155.1315 N.3     1  UNL1       -0.2676
     11 C         139.5401  147.0830  156.5923 C.3     1  UNL1        0.0746
     12 C         140.1561  146.0754  157.5171 C.3     1  UNL1        0.0449
     13 C         144.3243  144.2006  153.3267 C.ar    1  UNL1        0.2293
     14 C         143.8027  144.4603  154.7089 C.ar    1  UNL1        0.0924
     15 C         142.6018  143.7139  155.2098 C.ar    1  UNL1        0.1453
     16 N         141.9226  142.7079  154.3285 N.ar    1  UNL1       -0.2084
     17 C         142.4442  142.4482  152.9464 C.ar    1  UNL1        0.2027
     18 N         143.6451  143.1946  152.4455 N.ar    1  UNL1       -0.1892
     19 C         146.8015  144.9293  153.6136 C.3     1  UNL1        0.2542
     20 O         145.5251  144.9469  152.8257 O.3     1  UNL1       -0.4560
     21 C         141.7444  143.3391  160.4064 C.ar    1  UNL1        0.0622
     22 C         141.3194  141.9449  160.7609 C.ar    1  UNL1        0.0154
     23 C         141.3777  141.4827  162.1867 C.ar    1  UNL1        0.0013
     24 C         141.8610  142.4146  163.2581 C.ar    1  UNL1        0.0001
     25 C         142.2860  143.8089  162.9037 C.ar    1  UNL1        0.0013
     26 C         142.2277  144.2710  161.4778 C.ar    1  UNL1        0.0154
     27 C         141.9193  141.9524  164.6839 C.ar    1  UNL1        0.0000
     28 C         140.9968  140.8696  165.1597 C.ar    1  UNL1        0.0001
     29 C         141.0551  140.4073  166.5855 C.ar    1  UNL1        0.0045
     30 C         142.0360  141.0280  167.5355 C.ar    1  UNL1        0.0536
     31 C         142.9586  142.1108  167.0598 C.ar    1  UNL1        0.0045
     32 C         142.9003  142.5730  165.6340 C.ar    1  UNL1        0.0001
     33 C         142.0944  140.5657  168.9613 C.2     1  UNL1        0.2491
     34 O         143.0162  139.4482  169.3504 O.2     1  UNL1       -0.2699
     35 N         141.2308  141.2211  169.9982 N.am    1  UNL1       -0.2726
     36 C         141.2892  140.7588  171.4239 C.3     1  UNL1        0.1152
     37 C         140.3090  142.3386  169.6092 C.3     1  UNL1        0.1152
     38 C         139.2644  148.0745  154.2067 C.3     1  UNL1        0.1183
     39 C         139.9686  149.3703  153.9331 C.ar    1  UNL1        0.0712
     40 N         141.0603  149.4284  152.9061 N.ar    1  UNL1       -0.2471
     41 C         141.7645  150.7243  152.6324 C.ar    1  UNL1        0.0985
     42 C         141.3769  151.9621  153.3858 C.ar    1  UNL1        0.0203
     43 C         140.2852  151.9040  154.4128 C.ar    1  UNL1       -0.0015
     44 C         139.5810  150.6082  154.6865 C.ar    1  UNL1       -0.0069
     45 C         138.4893  150.5501  155.7135 C.3     1  UNL1        0.0323
@<TRIPOS>BOND
     1    19    20    1
     2    20    13    1
     3    13    14   ar
     4    14    15   ar
     5    15     1    1
     6     1     2   am
     7     2     3    2
     8     2     4   am
     9     4    21    1
    10    21    22   ar
    11    22    23   ar
    12    23    24   ar
    13    24    27    1
    14    27    28   ar
    15    28    29   ar
    16    29    30   ar
    17    30    33    1
    18    33    34    2
    19    33    35   am
    20    35    36    1
    21    35    37    1
    22    30    31   ar
    23    31    32   ar
    24    24    25   ar
    25    25    26   ar
    26     4     5   am
    27     5     6    2
    28     5     7    1
    29     7     8    1
    30     8     9    1
    31     9    10    1
    32    10    38    1
    33    38    39    1
    34    39    40   ar
    35    40    41   ar
    36    41    42   ar
    37    42    43   ar
    38    43    44   ar
    39    44    45    1
    40    10    11    1
    41    11    12    1
    42    15    16   ar
    43    16    17   ar
    44    17    18   ar
    45    18    13   ar
    46     7     1    1
    47    44    39   ar
    48    26    21   ar
    49    12     7    1
    50    32    27   ar
@<TRIPOS>MOLECULE
*****
 45 50 0 0 0
SMALL
GASTEIGER

@<TRIPOS>ATOM
      1 N         139.3053  140.8275  158.0958 N.am    1  UNL1       -0.2222
      2 C         139.1890  142.3229  158.1155 C.2     1  UNL1        0.3219
      3 O         138.9299  143.1712  159.3252 O.2     1  UNL1       -0.2512
      4 N         139.3773  142.8211  156.7132 N.am    1  UNL1       -0.1907
      5 C         139.6100  141.6336  155.8268 C.2     1  UNL1        0.2529
      6 O         139.8458  141.6714  154.3460 O.2     1  UNL1       -0.2724
      7 C         139.5655  140.4015  156.6813 C.3     1  UNL1        0.1391
      8 C         139.4942  139.2649  157.6575 C.3     1  UNL1        0.0449
      9 C         139.6777  137.8544  157.1810 C.3     1  UNL1        0.0746
     10 N         139.9325  137.5806  155.7284 N.3     1  UNL1       -0.2676
     11 C         140.0038  138.7172  154.7522 C.3     1  UNL1        0.0746
     12 C         139.8204  140.1276  155.2286 C.3     1  UNL1        0.0449
     13 C         140.2919  138.4299  161.1004 C.ar    1  UNL1        0.2293
     14 C         140.4143  139.3395  159.9140 C.ar    1  UNL1        0.0924
     15 C         139.1829  139.9179  159.2822 C.ar    1  UNL1        0.1453
     16 N         137.8291  139.5867  159.8368 N.ar    1  UNL1       -0.2084
     17 C         137.7067  138.6771  161.0232 C.ar    1  UNL1        0.2027
     18 N         138.9381  138.0987  161.6551 N.ar    1  UNL1       -0.1892
     19 C         141.5704  137.6266  163.2146 C.3     1  UNL1        0.2542
     20 O         141.5232  137.8515  161.7323 O.3     1  UNL1       -0.4560
     21 C         139.3396  144.2549  156.2744 C.ar    1  UNL1        0.0622
     22 C         140.4262  145.1979  156.6986 C.ar    1  UNL1        0.0154
     23 C         140.3884  146.6318  156.2598 C.ar    1  UNL1        0.0013
     24 C         139.2641  147.1226  155.3967 C.ar    1  UNL1        0.0001
     25 C         138.1774  146.1796  154.9725 C.ar    1  UNL1        0.0013
     26 C         138.2152  144.7457  155.4113 C.ar    1  UNL1        0.0154
     27 C         139.2263  148.5565  154.9579 C.ar    1  UNL1        0.0000
     28 C         139.7496  148.9411  153.6057 C.ar    1  UNL1        0.0001
     29 C         139.7118  150.3750  153.1669 C.ar    1  UNL1        0.0045
     30 C         139.1508  151.4242  154.0803 C.ar    1  UNL1        0.0536
     31 C         138.6275  151.0397  155.4324 C.ar    1  UNL1        0.0045
     32 C         138.6653  149.6059  155.8712 C.ar    1  UNL1        0.0001
     33 C         139.1130  152.8581  153.6414 C.2     1  UNL1        0.2491
     34 O         137.7973  153.5239  153.3663 O.2     1  UNL1       -0.2699
     35 N         140.3911  153.6263  153.4778 N.am    1  UNL1       -0.2726
     36 C         140.3532  155.0602  153.0390 C.3     1  UNL1        0.1152
     37 C         141.7067  152.9606  153.7530 C.3     1  UNL1        0.1152
     38 C         140.1160  136.1701  155.2520 C.3     1  UNL1        0.1183
     39 C         141.3955  135.4419  155.5393 C.ar    1  UNL1        0.0712
     40 N         142.2114  135.8060  156.7442 N.ar    1  UNL1       -0.2471
     41 C         143.4910  135.0778  157.0314 C.ar    1  UNL1        0.0985
     42 C         143.9545  133.9855  156.1139 C.ar    1  UNL1        0.0203
     43 C         143.1386  133.6214  154.9090 C.ar    1  UNL1       -0.0015
     44 C         141.8591  134.3496  154.6217 C.ar    1  UNL1       -0.0069
     45 C         141.0431  133.9855  153.4169 C.3     1  UNL1        0.0323
@<TRIPOS>BOND
     1    19    20    1
     2    20    13    1
     3    13    14   ar
     4    14    15   ar
     5    15     1    1
     6     1     2   am
     7     2     3    2
     8     2     4   am
     9     4    21    1
    10    21    22   ar
    11    22    23   ar
    12    23    24   ar
    13    24    27    1
    14    27    28   ar
    15    28    29   ar
    16    29    30   ar
    17    30    33    1
    18    33    34    2
    19    33    35   am
    20    35    36    1
    21    35    37    1
    22    30    31   ar
    23    31    32   ar
    24    24    25   ar
    25    25    26   ar
    26     4     5   am
    27     5     6    2
    28     5     7    1
    29     7     8    1
    30     8     9    1
    31     9    10    1
    32    10    38    1
    33    38    39    1
    34    39    40   ar
    35    40    41   ar
    36    41    42   ar
    37    42    43   ar
    38    43    44   ar
    39    44    45    1
    40    10    11    1
    41    11    12    1
    42    15    16   ar
    43    16    17   ar
    44    17    18   ar
    45    18    13   ar
    46     7     1    1
    47    44    39   ar
    48    26    21   ar
    49    12     7    1
    50    32    27   ar
@<TRIPOS>MOLECULE
*****
 45 50 0 0 0
SMALL
GASTEIGER

@<TRIPOS>ATOM
      1 N         143.8914  140.6046  157.3208 N.am    1  UNL1       -0.2222
      2 C         143.8488  141.3094  158.6443 C.2     1  UNL1        0.3219
      3 O         144.4093  142.6695  158.9373 O.2     1  UNL1       -0.2512
      4 N         143.1474  140.4151  159.6233 N.am    1  UNL1       -0.1907
      5 C         142.7564  139.1577  158.9048 C.2     1  UNL1        0.2529
      6 O         142.0328  137.9885  159.5041 O.2     1  UNL1       -0.2724
      7 C         143.2163  139.2748  157.4818 C.3     1  UNL1        0.1391
      8 C         143.7321  139.5334  156.0973 C.3     1  UNL1        0.0449
      9 C         143.5490  138.5019  155.0238 C.3     1  UNL1        0.0746
     10 N         142.8500  137.2117  155.3349 N.3     1  UNL1       -0.2676
     11 C         142.3341  136.9531  156.7194 C.3     1  UNL1        0.0746
     12 C         142.5172  137.9846  157.7928 C.3     1  UNL1        0.0449
     13 C         146.5881  141.5349  154.5618 C.ar    1  UNL1        0.2293
     14 C         145.9776  141.0032  155.8246 C.ar    1  UNL1        0.0924
     15 C         144.5019  141.1363  156.0580 C.ar    1  UNL1        0.1453
     16 N         143.6367  141.8011  155.0287 N.ar    1  UNL1       -0.2084
     17 C         144.2471  142.3328  153.7660 C.ar    1  UNL1        0.2027
     18 N         145.7229  142.1997  153.5325 N.ar    1  UNL1       -0.1892
     19 C         149.0305  141.7541  155.4197 C.3     1  UNL1        0.2542
     20 O         148.0638  141.4018  154.3283 O.3     1  UNL1       -0.4560
     21 C         142.8832  140.7240  161.0671 C.ar    1  UNL1        0.0622
     22 C         144.0275  140.8481  162.0290 C.ar    1  UNL1        0.0154
     23 C         143.7633  141.1571  163.4729 C.ar    1  UNL1        0.0013
     24 C         142.3550  141.3418  163.9549 C.ar    1  UNL1        0.0001
     25 C         141.2106  141.2176  162.9929 C.ar    1  UNL1        0.0013
     26 C         141.4749  140.9087  161.5491 C.ar    1  UNL1        0.0154
     27 C         142.0908  141.6507  165.3988 C.ar    1  UNL1        0.0000
     28 C         143.2371  141.8235  166.3507 C.ar    1  UNL1        0.0001
     29 C         142.9730  142.1324  167.7946 C.ar    1  UNL1        0.0045
     30 C         141.5625  142.2685  168.2865 C.ar    1  UNL1        0.0536
     31 C         140.4162  142.0958  167.3346 C.ar    1  UNL1        0.0045
     32 C         140.6803  141.7869  165.8908 C.ar    1  UNL1        0.0001
     33 C         141.2983  142.5774  169.7304 C.2     1  UNL1        0.2491
     34 O         141.1845  144.0027  170.1838 O.2     1  UNL1       -0.2699
     35 N         141.1480  141.4610  170.7209 N.am    1  UNL1       -0.2726
     36 C         140.8839  141.7700  172.1647 C.3     1  UNL1        0.1152
     37 C         141.2618  140.0357  170.2676 C.3     1  UNL1        0.1152
     38 C         142.6668  136.1801  154.2613 C.3     1  UNL1        0.1183
     39 C         142.9056  134.7308  154.5653 C.ar    1  UNL1        0.0712
     40 N         143.8274  134.3408  155.6824 N.ar    1  UNL1       -0.2471
     41 C         144.0661  132.8913  155.9864 C.ar    1  UNL1        0.0985
     42 C         143.3830  131.8321  155.1732 C.ar    1  UNL1        0.0203
     43 C         142.4612  132.2222  154.0560 C.ar    1  UNL1       -0.0015
     44 C         142.2224  133.6715  153.7521 C.ar    1  UNL1       -0.0069
     45 C         141.3006  134.0616  152.6349 C.3     1  UNL1        0.0323
@<TRIPOS>BOND
     1    19    20    1
     2    20    13    1
     3    13    14   ar
     4    14    15   ar
     5    15     1    1
     6     1     2   am
     7     2     3    2
     8     2     4   am
     9     4    21    1
    10    21    22   ar
    11    22    23   ar
    12    23    24   ar
    13    24    27    1
    14    27    28   ar
    15    28    29   ar
    16    29    30   ar
    17    30    33    1
    18    33    34    2
    19    33    35   am
    20    35    36    1
    21    35    37    1
    22    30    31   ar
    23    31    32   ar
    24    24    25   ar
    25    25    26   ar
    26     4     5   am
    27     5     6    2
    28     5     7    1
    29     7     8    1
    30     8     9    1
    31     9    10    1
    32    10    38    1
    33    38    39    1
    34    39    40   ar
    35    40    41   ar
    36    41    42   ar
    37    42    43   ar
    38    43    44   ar
    39    44    45    1
    40    10    11    1
    41    11    12    1
    42    15    16   ar
    43    16    17   ar
    44    17    18   ar
    45    18    13   ar
    46     7     1    1
    47    44    39   ar
    48    26    21   ar
    49    12     7    1
    50    32    27   ar
@<TRIPOS>MOLECULE
*****
 45 50 0 0 0
SMALL
GASTEIGER

@<TRIPOS>ATOM
      1 N         139.4189  138.5780  156.6030 N.am    1  UNL1       -0.2222
      2 C         139.1344  139.3091  157.8816 C.2     1  UNL1        0.3219
      3 O         137.9791  140.2327  158.1308 O.2     1  UNL1       -0.2512
      4 N         140.2082  138.9544  158.8671 N.am    1  UNL1       -0.1907
      5 C         141.1562  138.0041  158.1977 C.2     1  UNL1        0.2529
      6 O         142.3776  137.3936  158.8184 O.2     1  UNL1       -0.2724
      7 C         140.6684  137.7715  156.7983 C.3     1  UNL1        0.1391
      8 C         140.0625  137.6367  155.4328 C.3     1  UNL1        0.0449
      9 C         140.7105  136.7528  154.4087 C.3     1  UNL1        0.0746
     10 N         141.9644  136.0037  154.7502 N.3     1  UNL1       -0.2676
     11 C         142.5703  136.1384  156.1157 C.3     1  UNL1        0.0746
     12 C         141.9223  137.0224  157.1398 C.3     1  UNL1        0.0449
     13 C         138.0223  139.7953  153.0933 C.ar    1  UNL1        0.2293
     14 C         138.8432  139.7311  154.3471 C.ar    1  UNL1        0.0924
     15 C         138.5979  138.6422  155.3492 C.ar    1  UNL1        0.1453
     16 N         137.5317  137.6176  155.0976 N.ar    1  UNL1       -0.2084
     17 C         136.7108  137.6818  153.8439 C.ar    1  UNL1        0.2027
     18 N         136.9560  138.7707  152.8417 N.ar    1  UNL1       -0.1892
     19 C         138.2436  142.3203  152.5233 C.3     1  UNL1        0.2542
     20 O         138.2675  140.8840  152.0912 O.3     1  UNL1       -0.4560
     21 C         140.3151  139.4610  160.2748 C.ar    1  UNL1        0.0622
     22 C         140.6161  140.9081  160.5304 C.ar    1  UNL1        0.0154
     23 C         140.7230  141.4147  161.9382 C.ar    1  UNL1        0.0013
     24 C         140.5289  140.4742  163.0905 C.ar    1  UNL1        0.0001
     25 C         140.2279  139.0270  162.8350 C.ar    1  UNL1        0.0013
     26 C         140.1210  138.5205  161.4272 C.ar    1  UNL1        0.0154
     27 C         140.6358  140.9808  164.4983 C.ar    1  UNL1        0.0000
     28 C         139.7599  140.4050  165.5712 C.ar    1  UNL1        0.0001
     29 C         139.8668  140.9116  166.9790 C.ar    1  UNL1        0.0045
     30 C         140.8497  141.9941  167.3138 C.ar    1  UNL1        0.0536
     31 C         141.7256  142.5699  166.2410 C.ar    1  UNL1        0.0045
     32 C         141.6187  142.0634  164.8332 C.ar    1  UNL1        0.0001
     33 C         140.9566  142.5007  168.7217 C.2     1  UNL1        0.2491
     34 O         140.1363  143.6777  169.1595 O.2     1  UNL1       -0.2699
     35 N         141.8839  141.8302  169.6916 N.am    1  UNL1       -0.2726
     36 C         141.9907  142.3369  171.0994 C.3     1  UNL1        0.1152
     37 C         142.7042  140.6533  169.2538 C.3     1  UNL1        0.1152
     38 C         142.6124  135.1197  153.7260 C.3     1  UNL1        0.1183
     39 C         142.0219  133.7769  153.4130 C.ar    1  UNL1        0.0712
     40 N         140.9846  133.6459  152.3375 N.ar    1  UNL1       -0.2471
     41 C         140.3941  132.3030  152.0244 C.ar    1  UNL1        0.0985
     42 C         140.8410  131.0910  152.7869 C.ar    1  UNL1        0.0203
     43 C         141.8784  131.2220  153.8624 C.ar    1  UNL1       -0.0015
     44 C         142.4688  132.5648  154.1755 C.ar    1  UNL1       -0.0069
     45 C         143.5062  132.6957  155.2510 C.3     1  UNL1        0.0323
@<TRIPOS>BOND
     1    19    20    1
     2    20    13    1
     3    13    14   ar
     4    14    15   ar
     5    15     1    1
     6     1     2   am
     7     2     3    2
     8     2     4   am
     9     4    21    1
    10    21    22   ar
    11    22    23   ar
    12    23    24   ar
    13    24    27    1
    14    27    28   ar
    15    28    29   ar
    16    29    30   ar
    17    30    33    1
    18    33    34    2
    19    33    35   am
    20    35    36    1
    21    35    37    1
    22    30    31   ar
    23    31    32   ar
    24    24    25   ar
    25    25    26   ar
    26     4     5   am
    27     5     6    2
    28     5     7    1
    29     7     8    1
    30     8     9    1
    31     9    10    1
    32    10    38    1
    33    38    39    1
    34    39    40   ar
    35    40    41   ar
    36    41    42   ar
    37    42    43   ar
    38    43    44   ar
    39    44    45    1
    40    10    11    1
    41    11    12    1
    42    15    16   ar
    43    16    17   ar
    44    17    18   ar
    45    18    13   ar
    46     7     1    1
    47    44    39   ar
    48    26    21   ar
    49    12     7    1
    50    32    27   ar
@<TRIPOS>MOLECULE
*****
 45 50 0 0 0
SMALL
GASTEIGER

@<TRIPOS>ATOM
      1 N         142.2195  137.1953  156.3790 N.am    1  UNL1       -0.2222
      2 C         142.0840  138.1505  157.5277 C.2     1  UNL1        0.3219
      3 O         141.5935  139.5656  157.4446 O.2     1  UNL1       -0.2512
      4 N         142.5253  137.4421  158.7741 N.am    1  UNL1       -0.1907
      5 C         142.9335  136.0492  158.3957 C.2     1  UNL1        0.2529
      6 O         143.4415  134.9940  159.3329 O.2     1  UNL1       -0.2724
      7 C         142.7445  135.8966  156.9154 C.3     1  UNL1        0.1391
      8 C         142.5053  135.8929  155.4347 C.3     1  UNL1        0.0449
      9 C         142.7911  134.6585  154.6319 C.3     1  UNL1        0.0746
     10 N         143.3161  133.4278  155.3099 N.3     1  UNL1       -0.2676
     11 C         143.5554  133.4315  156.7907 C.3     1  UNL1        0.0746
     12 C         143.2696  134.6659  157.5934 C.3     1  UNL1        0.0449
     13 C         140.1666  137.5439  153.0005 C.ar    1  UNL1        0.2293
     14 C         140.4980  137.2516  154.4340 C.ar    1  UNL1        0.0924
     15 C         141.8881  137.4876  154.9455 C.ar    1  UNL1        0.1453
     16 N         142.9470  138.0159  154.0236 N.ar    1  UNL1       -0.2084
     17 C         142.6157  138.3082  152.5903 C.ar    1  UNL1        0.2027
     18 N         141.2254  138.0722  152.0787 N.ar    1  UNL1       -0.1892
     19 C         137.5978  137.5341  153.3886 C.3     1  UNL1        0.2542
     20 O         138.7765  137.3079  152.4889 O.3     1  UNL1       -0.4560
     21 C         142.5535  138.0243  160.1561 C.ar    1  UNL1        0.0622
     22 C         141.2731  138.4222  160.8286 C.ar    1  UNL1        0.0154
     23 C         141.3013  139.0045  162.2107 C.ar    1  UNL1        0.0013
     24 C         142.6098  139.1889  162.9203 C.ar    1  UNL1        0.0001
     25 C         143.8904  138.7910  162.2478 C.ar    1  UNL1        0.0013
     26 C         143.8621  138.2087  160.8657 C.ar    1  UNL1        0.0154
     27 C         142.6380  139.7712  164.3024 C.ar    1  UNL1        0.0000
     28 C         143.0775  138.9282  165.4626 C.ar    1  UNL1        0.0001
     29 C         143.1057  139.5104  166.8447 C.ar    1  UNL1        0.0045
     30 C         142.6943  140.9358  167.0665 C.ar    1  UNL1        0.0536
     31 C         142.2548  141.7788  165.9063 C.ar    1  UNL1        0.0045
     32 C         142.2267  141.1966  164.5242 C.ar    1  UNL1        0.0001
     33 C         142.7225  141.5181  168.4486 C.2     1  UNL1        0.2491
     34 O         143.7579  142.5414  168.8104 O.2     1  UNL1       -0.2699
     35 N         141.7152  141.0770  169.4689 N.am    1  UNL1       -0.2726
     36 C         141.7435  141.6594  170.8510 C.3     1  UNL1        0.1152
     37 C         140.6799  140.0538  169.1072 C.3     1  UNL1        0.1152
     38 C         143.6019  132.1933  154.5071 C.3     1  UNL1        0.1183
     39 C         143.5239  130.8427  155.1548 C.ar    1  UNL1        0.0712
     40 N         144.7742  130.1691  155.6375 N.ar    1  UNL1       -0.2471
     41 C         144.6962  128.8183  156.2853 C.ar    1  UNL1        0.0985
     42 C         143.3679  128.1413  156.4502 C.ar    1  UNL1        0.0203
     43 C         142.1176  128.8149  155.9675 C.ar    1  UNL1       -0.0015
     44 C         142.1956  130.1656  155.3198 C.ar    1  UNL1       -0.0069
     45 C         140.9453  130.8392  154.8370 C.3     1  UNL1        0.0323
@<TRIPOS>BOND
     1    19    20    1
     2    20    13    1
     3    13    14   ar
     4    14    15   ar
     5    15     1    1
     6     1     2   am
     7     2     3    2
     8     2     4   am
     9     4    21    1
    10    21    22   ar
    11    22    23   ar
    12    23    24   ar
    13    24    27    1
    14    27    28   ar
    15    28    29   ar
    16    29    30   ar
    17    30    33    1
    18    33    34    2
    19    33    35   am
    20    35    36    1
    21    35    37    1
    22    30    31   ar
    23    31    32   ar
    24    24    25   ar
    25    25    26   ar
    26     4     5   am
    27     5     6    2
    28     5     7    1
    29     7     8    1
    30     8     9    1
    31     9    10    1
    32    10    38    1
    33    38    39    1
    34    39    40   ar
    35    40    41   ar
    36    41    42   ar
    37    42    43   ar
    38    43    44   ar
    39    44    45    1
    40    10    11    1
    41    11    12    1
    42    15    16   ar
    43    16    17   ar
    44    17    18   ar
    45    18    13   ar
    46     7     1    1
    47    44    39   ar
    48    26    21   ar
    49    12     7    1
    50    32    27   ar
