@<TRIPOS>MOLECULE
*****
 21 22 0 0 0
SMALL
GASTEIGER

@<TRIPOS>ATOM
      1 C         140.1476  142.3042  163.9688 C.ar    1  UNL1        0.1804
      2 N         140.2448  143.6752  163.3681 N.ar    1  UNL1       -0.1839
      3 C         139.0831  144.2461  162.6101 C.ar    1  UNL1        0.2857
      4 O         139.1804  145.6171  162.0094 O.2     1  UNL1       -0.2650
      5 C         137.8242  143.4459  162.4528 C.ar    1  UNL1        0.1186
      6 C         137.7270  142.0749  163.0535 C.ar    1  UNL1        0.2130
      7 O         136.4680  141.2747  162.8962 O.3     1  UNL1       -0.4927
      8 N         138.8887  141.5041  163.8115 N.ar    1  UNL1       -0.2549
      9 H         135.7423  141.6313  162.4227 H       1  UNL1        0.2937
     10 C         138.7914  140.1330  164.4122 C.ar    1  UNL1        0.1023
     11 C         138.3031  139.9641  165.8204 C.ar    1  UNL1        0.0207
     12 C         138.2058  138.5931  166.4211 C.ar    1  UNL1        0.0017
     13 C         138.5968  137.3910  165.6136 C.ar    1  UNL1        0.0032
     14 C         139.0851  137.5599  164.2054 C.ar    1  UNL1        0.0384
     15 C         139.1823  138.9309  163.6047 C.ar    1  UNL1        0.1548
     16 O         139.6706  139.0998  162.1965 O.3     1  UNL1       -0.4700
     17 C         139.1208  138.2327  161.1029 C.3     1  UNL1        0.2525
     18 S         141.3093  141.7334  164.7268 S.3     1  UNL1       -0.0769
     19 C         142.3436  140.9165  164.0107 C.3     1  UNL1        0.0651
     20 C         142.1840  139.0861  165.8476 C.3     1  UNL1        0.0009
     21 C         142.7160  139.5582  164.5269 C.3     1  UNL1        0.0121
@<TRIPOS>BOND
     1    20    21    1
     2    21    19    1
     3    19    18    1
     4    18     1    1
     5     1     2   ar
     6     2     3   ar
     7     3     4    2
     8     3     5   ar
     9     5     6   ar
    10     6     7    1
    11     6     8   ar
    12     8    10    1
    13    10    11   ar
    14    11    12   ar
    15    12    13   ar
    16    13    14   ar
    17    14    15   ar
    18    15    16    1
    19    16    17    1
    20     8     1   ar
    21    15    10   ar
    22     7     9    1
@<TRIPOS>MOLECULE
*****
 21 22 0 0 0
SMALL
GASTEIGER

@<TRIPOS>ATOM
      1 C         142.2986  141.5178  164.2365 C.ar    1  UNL1        0.1804
      2 N         143.6062  141.9465  163.6395 N.ar    1  UNL1       -0.1839
      3 C         144.8175  141.0732  163.7813 C.ar    1  UNL1        0.2857
      4 O         146.1251  141.5019  163.1842 O.2     1  UNL1       -0.2650
      5 C         144.7213  139.7714  164.5201 C.ar    1  UNL1        0.1186
      6 C         143.4137  139.3428  165.1171 C.ar    1  UNL1        0.2130
      7 O         143.3175  138.0409  165.8560 O.3     1  UNL1       -0.4927
      8 N         142.2024  140.2160  164.9754 N.ar    1  UNL1       -0.2549
      9 H         144.0742  137.4954  165.9446 H       1  UNL1        0.2937
     10 C         140.8948  139.7873  165.5724 C.ar    1  UNL1        0.1023
     11 C         140.5308  140.2119  166.9643 C.ar    1  UNL1        0.0207
     12 C         139.2232  139.7833  167.5614 C.ar    1  UNL1        0.0017
     13 C         138.2796  138.9300  166.7666 C.ar    1  UNL1        0.0032
     14 C         138.6436  138.5054  165.3748 C.ar    1  UNL1        0.0384
     15 C         139.9512  138.9341  164.7777 C.ar    1  UNL1        0.1548
     16 O         140.3152  138.5094  163.3859 O.3     1  UNL1       -0.4700
     17 C         139.3008  137.8195  162.5227 C.3     1  UNL1        0.2525
     18 S         141.0872  142.3911  164.0948 S.3     1  UNL1       -0.0769
     19 C         140.8858  143.5508  165.0244 C.3     1  UNL1        0.0651
     20 C         138.5711  144.7198  165.1860 C.3     1  UNL1        0.0009
     21 C         139.5693  143.7352  165.7193 C.3     1  UNL1        0.0121
@<TRIPOS>BOND
     1    20    21    1
     2    21    19    1
     3    19    18    1
     4    18     1    1
     5     1     2   ar
     6     2     3   ar
     7     3     4    2
     8     3     5   ar
     9     5     6   ar
    10     6     7    1
    11     6     8   ar
    12     8    10    1
    13    10    11   ar
    14    11    12   ar
    15    12    13   ar
    16    13    14   ar
    17    14    15   ar
    18    15    16    1
    19    16    17    1
    20     8     1   ar
    21    15    10   ar
    22     7     9    1
@<TRIPOS>MOLECULE
*****
 21 22 0 0 0
SMALL
GASTEIGER

@<TRIPOS>ATOM
      1 C         141.2160  140.9539  165.5294 C.ar    1  UNL1        0.1804
      2 N         141.8124  140.2512  164.3460 N.ar    1  UNL1       -0.1839
      3 C         142.8219  139.1610  164.5516 C.ar    1  UNL1        0.2857
      4 O         143.4183  138.4582  163.3681 O.2     1  UNL1       -0.2650
      5 C         143.2352  138.7736  165.9405 C.ar    1  UNL1        0.1186
      6 C         142.6388  139.4763  167.1238 C.ar    1  UNL1        0.2130
      7 O         143.0520  139.0889  168.5128 O.3     1  UNL1       -0.4927
      8 N         141.6292  140.5665  166.9183 N.ar    1  UNL1       -0.2549
      9 H         143.6827  138.4079  168.6412 H       1  UNL1        0.2937
     10 C         141.0328  141.2692  168.1018 C.ar    1  UNL1        0.1023
     11 C         141.5977  142.5820  168.5575 C.ar    1  UNL1        0.0207
     12 C         141.0014  143.2847  169.7409 C.ar    1  UNL1        0.0017
     13 C         139.8402  142.6747  170.4687 C.ar    1  UNL1        0.0032
     14 C         139.2754  141.3620  170.0130 C.ar    1  UNL1        0.0384
     15 C         139.8717  140.6592  168.8296 C.ar    1  UNL1        0.1548
     16 O         139.3069  139.3464  168.3739 O.3     1  UNL1       -0.4700
     17 C         138.3288  139.3048  167.2374 C.3     1  UNL1        0.2525
     18 S         140.2064  142.0441  165.3239 S.3     1  UNL1       -0.0769
     19 C         140.6622  143.4441  165.0373 C.3     1  UNL1        0.0651
     20 C         138.5979  144.9350  165.5529 C.3     1  UNL1        0.0009
     21 C         139.6695  144.4825  164.6058 C.3     1  UNL1        0.0121
@<TRIPOS>BOND
     1    20    21    1
     2    21    19    1
     3    19    18    1
     4    18     1    1
     5     1     2   ar
     6     2     3   ar
     7     3     4    2
     8     3     5   ar
     9     5     6   ar
    10     6     7    1
    11     6     8   ar
    12     8    10    1
    13    10    11   ar
    14    11    12   ar
    15    12    13   ar
    16    13    14   ar
    17    14    15   ar
    18    15    16    1
    19    16    17    1
    20     8     1   ar
    21    15    10   ar
    22     7     9    1
@<TRIPOS>MOLECULE
*****
 21 22 0 0 0
SMALL
GASTEIGER

@<TRIPOS>ATOM
      1 C         140.5084  139.9619  166.6878 C.ar    1  UNL1        0.1804
      2 N         139.1850  139.5835  167.2841 N.ar    1  UNL1       -0.1839
      3 C         138.3207  138.5629  166.6050 C.ar    1  UNL1        0.2857
      4 O         136.9973  138.1845  167.2014 O.2     1  UNL1       -0.2650
      5 C         138.7797  137.9206  165.3296 C.ar    1  UNL1        0.1186
      6 C         140.1030  138.2989  164.7333 C.ar    1  UNL1        0.2130
      7 O         140.5620  137.6566  163.4578 O.3     1  UNL1       -0.4927
      8 N         140.9673  139.3196  165.4124 N.ar    1  UNL1       -0.2549
      9 H         140.0221  137.0191  163.0336 H       1  UNL1        0.2937
     10 C         142.2907  139.6979  164.8160 C.ar    1  UNL1        0.1023
     11 C         143.5236  138.9218  165.1731 C.ar    1  UNL1        0.0207
     12 C         144.8469  139.3001  164.5767 C.ar    1  UNL1        0.0017
     13 C         144.9374  140.4546  163.6232 C.ar    1  UNL1        0.0032
     14 C         143.7045  141.2307  163.2662 C.ar    1  UNL1        0.0384
     15 C         142.3811  140.8524  163.8626 C.ar    1  UNL1        0.1548
     16 O         141.1482  141.6285  163.5055 O.3     1  UNL1       -0.4700
     17 C         140.3064  141.2040  162.3387 C.3     1  UNL1        0.2525
     18 S         141.3727  140.9825  167.3669 S.3     1  UNL1       -0.0769
     19 C         140.9142  142.4073  167.4657 C.3     1  UNL1        0.0651
     20 C         141.3237  143.3316  169.8591 C.3     1  UNL1        0.0009
     21 C         140.3787  142.9345  168.7639 C.3     1  UNL1        0.0121
@<TRIPOS>BOND
     1    20    21    1
     2    21    19    1
     3    19    18    1
     4    18     1    1
     5     1     2   ar
     6     2     3   ar
     7     3     4    2
     8     3     5   ar
     9     5     6   ar
    10     6     7    1
    11     6     8   ar
    12     8    10    1
    13    10    11   ar
    14    11    12   ar
    15    12    13   ar
    16    13    14   ar
    17    14    15   ar
    18    15    16    1
    19    16    17    1
    20     8     1   ar
    21    15    10   ar
    22     7     9    1
@<TRIPOS>MOLECULE
*****
 21 22 0 0 0
SMALL
GASTEIGER

@<TRIPOS>ATOM
      1 C         142.4220  141.6839  164.0304 C.ar    1  UNL1        0.1804
      2 N         143.8583  141.2650  163.9234 N.ar    1  UNL1       -0.1839
      3 C         144.8349  142.1200  163.1716 C.ar    1  UNL1        0.2857
      4 O         146.2713  141.7011  163.0647 O.2     1  UNL1       -0.2650
      5 C         144.3752  143.3939  162.5267 C.ar    1  UNL1        0.1186
      6 C         142.9388  143.8127  162.6336 C.ar    1  UNL1        0.2130
      7 O         142.4790  145.0866  161.9887 O.3     1  UNL1       -0.4927
      8 N         141.9622  142.9577  163.3854 N.ar    1  UNL1       -0.2549
      9 H         143.0891  145.6207  161.5190 H       1  UNL1        0.2937
     10 C         140.5258  143.3766  163.4923 C.ar    1  UNL1        0.1023
     11 C         140.0867  144.2702  164.6142 C.ar    1  UNL1        0.0207
     12 C         138.6504  144.6891  164.7212 C.ar    1  UNL1        0.0017
     13 C         137.6531  144.2144  163.7062 C.ar    1  UNL1        0.0032
     14 C         138.0922  143.3208  162.5843 C.ar    1  UNL1        0.0384
     15 C         139.5286  142.9019  162.4774 C.ar    1  UNL1        0.1548
     16 O         139.9677  142.0083  161.3555 O.3     1  UNL1       -0.4700
     17 C         139.0688  140.9061  160.8788 C.3     1  UNL1        0.2525
     18 S         141.4454  140.8289  164.7822 S.3     1  UNL1       -0.0769
     19 C         140.7434  139.7017  164.0848 C.3     1  UNL1        0.0651
     20 C         138.8799  138.1182  164.9624 C.3     1  UNL1        0.0009
     21 C         139.2953  139.4309  164.3670 C.3     1  UNL1        0.0121
@<TRIPOS>BOND
     1    20    21    1
     2    21    19    1
     3    19    18    1
     4    18     1    1
     5     1     2   ar
     6     2     3   ar
     7     3     4    2
     8     3     5   ar
     9     5     6   ar
    10     6     7    1
    11     6     8   ar
    12     8    10    1
    13    10    11   ar
    14    11    12   ar
    15    12    13   ar
    16    13    14   ar
    17    14    15   ar
    18    15    16    1
    19    16    17    1
    20     8     1   ar
    21    15    10   ar
    22     7     9    1
@<TRIPOS>MOLECULE
*****
 21 22 0 0 0
SMALL
GASTEIGER

@<TRIPOS>ATOM
      1 C         139.5158  141.5464  163.7755 C.ar    1  UNL1        0.1804
      2 N         138.7096  142.6432  163.1454 N.ar    1  UNL1       -0.1839
      3 C         139.2595  144.0374  163.0834 C.ar    1  UNL1        0.2857
      4 O         138.4533  145.1343  162.4532 O.2     1  UNL1       -0.2650
      5 C         140.6154  144.3349  163.6517 C.ar    1  UNL1        0.1186
      6 C         141.4215  143.2380  164.2818 C.ar    1  UNL1        0.2130
      7 O         142.7775  143.5354  164.8501 O.3     1  UNL1       -0.4927
      8 N         140.8717  141.8438  164.3437 N.ar    1  UNL1       -0.2549
      9 H         143.1210  144.4064  164.8114 H       1  UNL1        0.2937
     10 C         141.6779  140.7470  164.9739 C.ar    1  UNL1        0.1023
     11 C         142.5955  139.9116  164.1313 C.ar    1  UNL1        0.0207
     12 C         143.4017  138.8148  164.7614 C.ar    1  UNL1        0.0017
     13 C         143.2903  138.5534  166.2343 C.ar    1  UNL1        0.0032
     14 C         142.3726  139.3887  167.0769 C.ar    1  UNL1        0.0384
     15 C         141.5664  140.4856  166.4467 C.ar    1  UNL1        0.1548
     16 O         140.6488  141.3210  167.2894 O.3     1  UNL1       -0.4700
     17 C         139.8944  140.6941  168.4243 C.3     1  UNL1        0.2525
     18 S         138.9659  140.1522  163.8374 S.3     1  UNL1       -0.0769
     19 C         138.2826  139.6700  165.0826 C.3     1  UNL1        0.0651
     20 C         139.6776  137.4798  165.0004 C.3     1  UNL1        0.0009
     21 C         138.6283  138.3278  165.6561 C.3     1  UNL1        0.0121
@<TRIPOS>BOND
     1    20    21    1
     2    21    19    1
     3    19    18    1
     4    18     1    1
     5     1     2   ar
     6     2     3   ar
     7     3     4    2
     8     3     5   ar
     9     5     6   ar
    10     6     7    1
    11     6     8   ar
    12     8    10    1
    13    10    11   ar
    14    11    12   ar
    15    12    13   ar
    16    13    14   ar
    17    14    15   ar
    18    15    16    1
    19    16    17    1
    20     8     1   ar
    21    15    10   ar
    22     7     9    1
@<TRIPOS>MOLECULE
*****
 21 22 0 0 0
SMALL
GASTEIGER

@<TRIPOS>ATOM
      1 C         140.5972  141.9396  167.3041 C.ar    1  UNL1        0.1804
      2 N         140.8542  142.5036  168.6701 N.ar    1  UNL1       -0.1839
      3 C         140.2251  141.8681  169.8744 C.ar    1  UNL1        0.2857
      4 O         140.4821  142.4321  171.2404 O.2     1  UNL1       -0.2650
      5 C         139.3391  140.6686  169.7127 C.ar    1  UNL1        0.1186
      6 C         139.0821  140.1047  168.3468 C.ar    1  UNL1        0.2130
      7 O         138.1961  138.9051  168.1851 O.3     1  UNL1       -0.4927
      8 N         139.7112  140.7402  167.1425 N.ar    1  UNL1       -0.2549
      9 H         137.8031  138.5081  168.9374 H       1  UNL1        0.2937
     10 C         139.4542  140.1762  165.7765 C.ar    1  UNL1        0.1023
     11 C         138.2773  140.6523  164.9777 C.ar    1  UNL1        0.0207
     12 C         138.0202  140.0884  163.6118 C.ar    1  UNL1        0.0017
     13 C         138.9402  139.0482  163.0445 C.ar    1  UNL1        0.0032
     14 C         140.1172  138.5720  163.8432 C.ar    1  UNL1        0.0384
     15 C         140.3742  139.1360  165.2093 C.ar    1  UNL1        0.1548
     16 O         141.5511  138.6598  166.0080 O.3     1  UNL1       -0.4700
     17 C         142.8658  138.4099  165.3303 C.3     1  UNL1        0.2525
     18 S         141.2263  142.5752  166.0998 S.3     1  UNL1       -0.0769
     19 C         142.6313  142.2203  165.7123 C.3     1  UNL1        0.0651
     20 C         144.7015  143.7816  165.5501 C.3     1  UNL1        0.0009
     21 C         143.4644  143.1965  164.9358 C.3     1  UNL1        0.0121
@<TRIPOS>BOND
     1    20    21    1
     2    21    19    1
     3    19    18    1
     4    18     1    1
     5     1     2   ar
     6     2     3   ar
     7     3     4    2
     8     3     5   ar
     9     5     6   ar
    10     6     7    1
    11     6     8   ar
    12     8    10    1
    13    10    11   ar
    14    11    12   ar
    15    12    13   ar
    16    13    14   ar
    17    14    15   ar
    18    15    16    1
    19    16    17    1
    20     8     1   ar
    21    15    10   ar
    22     7     9    1
@<TRIPOS>MOLECULE
*****
 21 22 0 0 0
SMALL
GASTEIGER

@<TRIPOS>ATOM
      1 C         139.7123  141.7225  163.7489 C.ar    1  UNL1        0.1804
      2 N         138.9740  142.8384  163.0710 N.ar    1  UNL1       -0.1839
      3 C         139.5916  144.2026  162.9844 C.ar    1  UNL1        0.2857
      4 O         138.8532  145.3185  162.3065 O.2     1  UNL1       -0.2650
      5 C         140.9476  144.4508  163.5756 C.ar    1  UNL1        0.1186
      6 C         141.6860  143.3349  164.2535 C.ar    1  UNL1        0.2130
      7 O         143.0421  143.5832  164.8447 O.3     1  UNL1       -0.4927
      8 N         141.0683  141.9708  164.3401 N.ar    1  UNL1       -0.2549
      9 H         143.4279  144.4353  164.7906 H       1  UNL1        0.2937
     10 C         141.8067  140.8548  165.0180 C.ar    1  UNL1        0.1023
     11 C         141.6379  140.6301  166.4914 C.ar    1  UNL1        0.0207
     12 C         142.3763  139.5142  167.1694 C.ar    1  UNL1        0.0017
     13 C         143.2835  138.6230  166.3739 C.ar    1  UNL1        0.0032
     14 C         143.4524  138.8478  164.9004 C.ar    1  UNL1        0.0384
     15 C         142.7140  139.9637  164.2225 C.ar    1  UNL1        0.1548
     16 O         142.8828  140.1885  162.7491 O.3     1  UNL1       -0.4700
     17 C         144.1496  139.7655  162.0662 C.3     1  UNL1        0.2525
     18 S         139.0947  140.3583  163.8355 S.3     1  UNL1       -0.0769
     19 C         138.2331  139.9983  165.0094 C.3     1  UNL1        0.0651
     20 C         139.2817  137.6235  165.1149 C.3     1  UNL1        0.0009
     21 C         138.4708  138.7149  165.7486 C.3     1  UNL1        0.0121
@<TRIPOS>BOND
     1    20    21    1
     2    21    19    1
     3    19    18    1
     4    18     1    1
     5     1     2   ar
     6     2     3   ar
     7     3     4    2
     8     3     5   ar
     9     5     6   ar
    10     6     7    1
    11     6     8   ar
    12     8    10    1
    13    10    11   ar
    14    11    12   ar
    15    12    13   ar
    16    13    14   ar
    17    14    15   ar
    18    15    16    1
    19    16    17    1
    20     8     1   ar
    21    15    10   ar
    22     7     9    1
@<TRIPOS>MOLECULE
*****
 21 22 0 0 0
SMALL
GASTEIGER

@<TRIPOS>ATOM
      1 C         140.3251  142.4883  164.2975 C.ar    1  UNL1        0.1804
      2 N         140.0464  143.7361  165.0820 N.ar    1  UNL1       -0.1839
      3 C         138.6416  144.2478  165.2030 C.ar    1  UNL1        0.2857
      4 O         138.3630  145.4957  165.9875 O.2     1  UNL1       -0.2650
      5 C         137.5155  143.5118  164.5396 C.ar    1  UNL1        0.1186
      6 C         137.7942  142.2641  163.7552 C.ar    1  UNL1        0.2130
      7 O         136.6681  141.5280  163.0917 O.3     1  UNL1       -0.4927
      8 N         139.1990  141.7523  163.6341 N.ar    1  UNL1       -0.2549
      9 H         135.7905  141.8477  163.1673 H       1  UNL1        0.2937
     10 C         139.4776  140.5044  162.8497 C.ar    1  UNL1        0.1023
     11 C         139.9714  140.6015  161.4366 C.ar    1  UNL1        0.0207
     12 C         140.2501  139.3538  160.6521 C.ar    1  UNL1        0.0017
     13 C         140.0349  138.0089  161.2807 C.ar    1  UNL1        0.0032
     14 C         139.5411  137.9118  162.6938 C.ar    1  UNL1        0.0384
     15 C         139.2625  139.1597  163.4783 C.ar    1  UNL1        0.1548
     16 O         138.7687  139.0626  164.8913 O.3     1  UNL1       -0.4700
     17 C         139.7336  139.1866  166.0332 C.3     1  UNL1        0.2525
     18 S         141.7299  141.9765  164.1765 S.3     1  UNL1       -0.0769
     19 C         142.7265  142.7137  163.3320 C.3     1  UNL1        0.0651
     20 C         143.5008  145.1177  163.9415 C.3     1  UNL1        0.0009
     21 C         143.7204  143.6342  163.9762 C.3     1  UNL1        0.0121
@<TRIPOS>BOND
     1    20    21    1
     2    21    19    1
     3    19    18    1
     4    18     1    1
     5     1     2   ar
     6     2     3   ar
     7     3     4    2
     8     3     5   ar
     9     5     6   ar
    10     6     7    1
    11     6     8   ar
    12     8    10    1
    13    10    11   ar
    14    11    12   ar
    15    12    13   ar
    16    13    14   ar
    17    14    15   ar
    18    15    16    1
    19    16    17    1
    20     8     1   ar
    21    15    10   ar
    22     7     9    1
