@<TRIPOS>MOLECULE
*****
 31 34 0 0 0
SMALL
GASTEIGER

@<TRIPOS>ATOM
      1 O         138.2553  142.1999  164.7502 O.2     1  UNL1       -0.2699
      2 C         139.6444  142.1358  164.1878 C.2     1  UNL1        0.2523
      3 N         140.7311  141.4383  164.9511 N.am    1  UNL1       -0.2949
      4 H         141.6428  141.3962  164.5820 H       1  UNL1        0.1503
      5 C         139.9469  142.7693  162.8622 C.ar    1  UNL1        0.1253
      6 C         141.3701  142.9429  162.4212 C.ar    1  UNL1        0.1098
      7 N         141.6725  143.5764  161.0956 N.ar    1  UNL1       -0.2233
      8 C         140.5517  144.0363  160.2110 C.ar    1  UNL1        0.1849
      9 N         139.1286  143.8627  160.6520 N.ar    1  UNL1       -0.1909
     10 C         138.8262  143.2292  161.9776 C.ar    1  UNL1        0.2289
     11 O         137.4030  143.0555  162.4186 O.3     1  UNL1       -0.4918
     12 H         136.7029  143.3428  161.8660 H       1  UNL1        0.2938
     13 C         140.8542  144.6698  158.8854 C.ar    1  UNL1        0.1386
     14 C         139.9513  144.4236  157.7131 C.ar    1  UNL1        0.0257
     15 C         140.2537  145.0571  156.3875 C.ar    1  UNL1        0.0242
     16 C         141.4591  145.9367  156.2342 C.ar    1  UNL1        0.1222
     17 N         142.3619  146.1829  157.4065 N.ar    1  UNL1       -0.1463
     18 N         142.0594  145.5494  158.7321 N.ar    1  UNL1       -0.1448
     19 C         140.4286  140.8048  166.2767 C.3     1  UNL1        0.1171
     20 C         139.5154  139.6170  166.3493 C.ar    1  UNL1       -0.0003
     21 C         139.6398  138.5125  165.3421 C.ar    1  UNL1       -0.0024
     22 C         138.7266  137.3248  165.4148 C.ar    1  UNL1       -0.0003
     23 C         137.6889  137.2416  166.4948 C.ar    1  UNL1       -0.0000
     24 C         137.5645  138.3461  167.5020 C.ar    1  UNL1       -0.0003
     25 C         138.4777  139.5338  167.4293 C.ar    1  UNL1       -0.0024
     26 C         141.0394  141.3590  167.5295 C.ar    1  UNL1       -0.0003
     27 C         142.2362  140.6914  168.1394 C.ar    1  UNL1       -0.0024
     28 C         142.8470  141.2457  169.3923 C.ar    1  UNL1       -0.0003
     29 C         142.2609  142.4675  170.0354 C.ar    1  UNL1       -0.0000
     30 C         141.0641  143.1352  169.4255 C.ar    1  UNL1       -0.0003
     31 C         140.4533  142.5809  168.1726 C.ar    1  UNL1       -0.0024
@<TRIPOS>BOND
     1     1     2    2
     2     2     3   am
     3     3    19    1
     4    19    20    1
     5    20    21   ar
     6    21    22   ar
     7    22    23   ar
     8    23    24   ar
     9    24    25   ar
    10    19    26    1
    11    26    27   ar
    12    27    28   ar
    13    28    29   ar
    14    29    30   ar
    15    30    31   ar
    16     2     5    1
    17     5     6   ar
    18     6     7   ar
    19     7     8   ar
    20     8    13    1
    21    13    14   ar
    22    14    15   ar
    23    15    16   ar
    24    16    17   ar
    25    17    18   ar
    26     8     9   ar
    27     9    10   ar
    28    10    11    1
    29    25    20   ar
    30    31    26   ar
    31    10     5   ar
    32    18    13   ar
    33     3     4    1
    34    11    12    1
@<TRIPOS>MOLECULE
*****
 31 34 0 0 0
SMALL
GASTEIGER

@<TRIPOS>ATOM
      1 O         138.2481  142.1808  164.6362 O.2     1  UNL1       -0.2699
      2 C         139.6322  142.1350  164.0598 C.2     1  UNL1        0.2523
      3 N         140.7385  141.4628  164.8176 N.am    1  UNL1       -0.2949
      4 H         141.6469  141.4328  164.4393 H       1  UNL1        0.1503
      5 C         139.9101  142.7614  162.7254 C.ar    1  UNL1        0.1253
      6 C         140.7878  142.0565  161.7341 C.ar    1  UNL1        0.1098
      7 N         141.0656  142.6829  160.3998 N.ar    1  UNL1       -0.2233
      8 C         140.4657  144.0143  160.0568 C.ar    1  UNL1        0.1849
      9 N         139.5879  144.7191  161.0481 N.ar    1  UNL1       -0.1909
     10 C         139.3101  144.0927  162.3824 C.ar    1  UNL1        0.2289
     11 O         138.4324  144.7977  163.3737 O.3     1  UNL1       -0.4918
     12 H         138.0576  145.6293  163.1594 H       1  UNL1        0.2938
     13 C         140.7435  144.6407  158.7225 C.ar    1  UNL1        0.1386
     14 C         139.8255  144.3788  157.5653 C.ar    1  UNL1        0.0257
     15 C         140.1033  145.0053  156.2310 C.ar    1  UNL1        0.0242
     16 C         141.2991  145.8935  156.0538 C.ar    1  UNL1        0.1222
     17 N         142.2169  146.1553  157.2109 N.ar    1  UNL1       -0.1463
     18 N         141.9391  145.5289  158.5453 N.ar    1  UNL1       -0.1448
     19 C         140.4607  140.8364  166.1520 C.3     1  UNL1        0.1171
     20 C         141.0858  141.4041  167.3918 C.ar    1  UNL1       -0.0003
     21 C         140.4659  142.5906  168.0685 C.ar    1  UNL1       -0.0024
     22 C         141.0910  143.1583  169.3082 C.ar    1  UNL1       -0.0003
     23 C         142.3360  142.5394  169.8712 C.ar    1  UNL1       -0.0000
     24 C         142.9559  141.3530  169.1945 C.ar    1  UNL1       -0.0003
     25 C         142.3308  140.7853  167.9548 C.ar    1  UNL1       -0.0024
     26 C         139.5578  139.6424  166.2466 C.ar    1  UNL1       -0.0003
     27 C         138.5024  139.5826  167.3107 C.ar    1  UNL1       -0.0024
     28 C         137.5994  138.3884  167.4053 C.ar    1  UNL1       -0.0003
     29 C         137.7520  137.2542  166.4357 C.ar    1  UNL1       -0.0000
     30 C         138.8074  137.3140  165.3715 C.ar    1  UNL1       -0.0003
     31 C         139.7103  138.5081  165.2769 C.ar    1  UNL1       -0.0024
@<TRIPOS>BOND
     1     1     2    2
     2     2     3   am
     3     3    19    1
     4    19    20    1
     5    20    21   ar
     6    21    22   ar
     7    22    23   ar
     8    23    24   ar
     9    24    25   ar
    10    19    26    1
    11    26    27   ar
    12    27    28   ar
    13    28    29   ar
    14    29    30   ar
    15    30    31   ar
    16     2     5    1
    17     5     6   ar
    18     6     7   ar
    19     7     8   ar
    20     8    13    1
    21    13    14   ar
    22    14    15   ar
    23    15    16   ar
    24    16    17   ar
    25    17    18   ar
    26     8     9   ar
    27     9    10   ar
    28    10    11    1
    29    25    20   ar
    30    31    26   ar
    31    10     5   ar
    32    18    13   ar
    33     3     4    1
    34    11    12    1
@<TRIPOS>MOLECULE
*****
 31 34 0 0 0
SMALL
GASTEIGER

@<TRIPOS>ATOM
      1 O         142.8025  141.4358  162.5289 O.2     1  UNL1       -0.2699
      2 C         141.8634  140.3018  162.2420 C.2     1  UNL1        0.2523
      3 N         140.8026  139.9363  163.2375 N.am    1  UNL1       -0.2949
      4 H         140.1863  139.1920  163.0491 H       1  UNL1        0.1503
      5 C         141.9853  139.5333  160.9596 C.ar    1  UNL1        0.1253
      6 C         140.7774  139.3178  160.0966 C.ar    1  UNL1        0.1098
      7 N         140.8993  138.5493  158.8142 N.ar    1  UNL1       -0.2233
      8 C         142.2291  137.9962  158.3948 C.ar    1  UNL1        0.1849
      9 N         143.4369  138.2117  159.2578 N.ar    1  UNL1       -0.1909
     10 C         143.3150  138.9802  160.5401 C.ar    1  UNL1        0.2289
     11 O         144.5229  139.1956  161.4031 O.3     1  UNL1       -0.4918
     12 H         145.3535  138.8501  161.1411 H       1  UNL1        0.2938
     13 C         142.3509  137.2277  157.1124 C.ar    1  UNL1        0.1386
     14 C         141.1178  136.7525  156.4027 C.ar    1  UNL1        0.0257
     15 C         141.2397  135.9840  155.1203 C.ar    1  UNL1        0.0242
     16 C         142.5947  135.6907  154.5476 C.ar    1  UNL1        0.1222
     17 N         143.8278  136.1659  155.2573 N.ar    1  UNL1       -0.1463
     18 N         143.7059  136.9344  156.5397 N.ar    1  UNL1       -0.1448
     19 C         140.6807  140.7048  164.5198 C.3     1  UNL1        0.1171
     20 C         139.8992  141.9847  164.5558 C.ar    1  UNL1       -0.0003
     21 C         140.6150  143.2975  164.6744 C.ar    1  UNL1       -0.0024
     22 C         139.8334  144.5772  164.7104 C.ar    1  UNL1       -0.0003
     23 C         138.3361  144.5442  164.6278 C.ar    1  UNL1       -0.0000
     24 C         137.6203  143.2314  164.5092 C.ar    1  UNL1       -0.0003
     25 C         138.4018  141.9516  164.4732 C.ar    1  UNL1       -0.0024
     26 C         141.3403  140.1935  165.7662 C.ar    1  UNL1       -0.0003
     27 C         142.5716  139.3424  165.6681 C.ar    1  UNL1       -0.0024
     28 C         143.2312  138.8311  166.9145 C.ar    1  UNL1       -0.0003
     29 C         142.6596  139.1710  168.2590 C.ar    1  UNL1       -0.0000
     30 C         141.4283  140.0221  168.3571 C.ar    1  UNL1       -0.0003
     31 C         140.7687  140.5334  167.1108 C.ar    1  UNL1       -0.0024
@<TRIPOS>BOND
     1     1     2    2
     2     2     3   am
     3     3    19    1
     4    19    20    1
     5    20    21   ar
     6    21    22   ar
     7    22    23   ar
     8    23    24   ar
     9    24    25   ar
    10    19    26    1
    11    26    27   ar
    12    27    28   ar
    13    28    29   ar
    14    29    30   ar
    15    30    31   ar
    16     2     5    1
    17     5     6   ar
    18     6     7   ar
    19     7     8   ar
    20     8    13    1
    21    13    14   ar
    22    14    15   ar
    23    15    16   ar
    24    16    17   ar
    25    17    18   ar
    26     8     9   ar
    27     9    10   ar
    28    10    11    1
    29    25    20   ar
    30    31    26   ar
    31    10     5   ar
    32    18    13   ar
    33     3     4    1
    34    11    12    1
@<TRIPOS>MOLECULE
*****
 31 34 0 0 0
SMALL
GASTEIGER

@<TRIPOS>ATOM
      1 O         140.9360  140.1970  161.8253 O.2     1  UNL1       -0.2699
      2 C         142.1515  141.0760  161.8163 C.2     1  UNL1        0.2523
      3 N         142.5269  141.8493  163.0455 N.am    1  UNL1       -0.2949
      4 H         143.3246  142.4263  163.0396 H       1  UNL1        0.1503
      5 C         142.9915  141.1817  160.5780 C.ar    1  UNL1        0.1253
      6 C         143.3109  139.9516  159.7812 C.ar    1  UNL1        0.1098
      7 N         144.1509  140.0573  158.5429 N.ar    1  UNL1       -0.2233
      8 C         144.6715  141.3930  158.1015 C.ar    1  UNL1        0.1849
      9 N         144.3520  142.6231  158.8984 N.ar    1  UNL1       -0.1909
     10 C         143.5121  142.5174  160.1366 C.ar    1  UNL1        0.2289
     11 O         143.1927  143.7475  160.9335 O.3     1  UNL1       -0.4918
     12 H         143.5179  144.5819  160.6577 H       1  UNL1        0.2938
     13 C         145.5114  141.4987  156.8633 C.ar    1  UNL1        0.1386
     14 C         146.6892  142.4273  156.8329 C.ar    1  UNL1        0.0257
     15 C         147.5291  142.5329  155.5947 C.ar    1  UNL1        0.0242
     16 C         147.1914  141.7101  154.3868 C.ar    1  UNL1        0.1222
     17 N         146.0138  140.7816  154.4172 N.ar    1  UNL1       -0.1463
     18 N         145.1738  140.6759  155.6555 N.ar    1  UNL1       -0.1448
     19 C         141.6869  141.7437  164.2837 C.3     1  UNL1        0.1171
     20 C         140.4214  142.5404  164.4018 C.ar    1  UNL1       -0.0003
     21 C         140.4862  144.0241  164.6127 C.ar    1  UNL1       -0.0024
     22 C         139.2208  144.8207  164.7308 C.ar    1  UNL1       -0.0003
     23 C         137.8906  144.1337  164.6379 C.ar    1  UNL1       -0.0000
     24 C         137.8258  142.6501  164.4270 C.ar    1  UNL1       -0.0003
     25 C         139.0913  141.8534  164.3090 C.ar    1  UNL1       -0.0024
     26 C         142.1123  140.8413  165.4039 C.ar    1  UNL1       -0.0003
     27 C         142.8345  139.5615  165.1029 C.ar    1  UNL1       -0.0024
     28 C         143.2599  138.6591  166.2232 C.ar    1  UNL1       -0.0003
     29 C         142.9632  139.0366  167.6442 C.ar    1  UNL1       -0.0000
     30 C         142.2411  140.3165  167.9451 C.ar    1  UNL1       -0.0003
     31 C         141.8157  141.2188  166.8250 C.ar    1  UNL1       -0.0024
@<TRIPOS>BOND
     1     1     2    2
     2     2     3   am
     3     3    19    1
     4    19    20    1
     5    20    21   ar
     6    21    22   ar
     7    22    23   ar
     8    23    24   ar
     9    24    25   ar
    10    19    26    1
    11    26    27   ar
    12    27    28   ar
    13    28    29   ar
    14    29    30   ar
    15    30    31   ar
    16     2     5    1
    17     5     6   ar
    18     6     7   ar
    19     7     8   ar
    20     8    13    1
    21    13    14   ar
    22    14    15   ar
    23    15    16   ar
    24    16    17   ar
    25    17    18   ar
    26     8     9   ar
    27     9    10   ar
    28    10    11    1
    29    25    20   ar
    30    31    26   ar
    31    10     5   ar
    32    18    13   ar
    33     3     4    1
    34    11    12    1
@<TRIPOS>MOLECULE
*****
 31 34 0 0 0
SMALL
GASTEIGER

@<TRIPOS>ATOM
      1 O         142.6380  141.4528  162.4432 O.2     1  UNL1       -0.2699
      2 C         141.7714  140.2532  162.1977 C.2     1  UNL1        0.2523
      3 N         140.7702  139.8273  163.2302 N.am    1  UNL1       -0.2949
      4 H         140.2015  139.0400  163.0691 H       1  UNL1        0.1503
      5 C         141.9063  139.4795  160.9198 C.ar    1  UNL1        0.1253
      6 C         140.6936  139.1947  160.0839 C.ar    1  UNL1        0.1098
      7 N         140.8284  138.4210  158.8060 N.ar    1  UNL1       -0.2233
      8 C         142.1759  137.9321  158.3638 C.ar    1  UNL1        0.1849
      9 N         143.3884  138.2168  159.1996 N.ar    1  UNL1       -0.1909
     10 C         143.2536  138.9905  160.4776 C.ar    1  UNL1        0.2289
     11 O         144.4662  139.2753  161.3134 O.3     1  UNL1       -0.4918
     12 H         145.3079  138.9699  161.0372 H       1  UNL1        0.2938
     13 C         142.3107  137.1583  157.0858 C.ar    1  UNL1        0.1386
     14 C         141.0866  136.7778  156.3068 C.ar    1  UNL1        0.0257
     15 C         141.2214  136.0041  155.0289 C.ar    1  UNL1        0.0242
     16 C         142.5803  135.6109  154.5299 C.ar    1  UNL1        0.1222
     17 N         143.8043  135.9915  155.3089 N.ar    1  UNL1       -0.1463
     18 N         143.6695  136.7652  156.5869 N.ar    1  UNL1       -0.1448
     19 C         140.6354  140.6010  164.5082 C.3     1  UNL1        0.1171
     20 C         141.3190  140.1180  165.7530 C.ar    1  UNL1       -0.0003
     21 C         142.5574  139.2780  165.6508 C.ar    1  UNL1       -0.0024
     22 C         143.2409  138.7950  166.8956 C.ar    1  UNL1       -0.0003
     23 C         142.6859  139.1521  168.2426 C.ar    1  UNL1       -0.0000
     24 C         141.4475  139.9921  168.3448 C.ar    1  UNL1       -0.0003
     25 C         140.7640  140.4751  167.1001 C.ar    1  UNL1       -0.0024
     26 C         139.8171  141.8577  164.5414 C.ar    1  UNL1       -0.0003
     27 C         140.4888  143.1854  164.7312 C.ar    1  UNL1       -0.0024
     28 C         139.6704  144.4420  164.7644 C.ar    1  UNL1       -0.0003
     29 C         138.1804  144.3710  164.6077 C.ar    1  UNL1       -0.0000
     30 C         137.5086  143.0433  164.4180 C.ar    1  UNL1       -0.0003
     31 C         138.3269  141.7867  164.3848 C.ar    1  UNL1       -0.0024
@<TRIPOS>BOND
     1     1     2    2
     2     2     3   am
     3     3    19    1
     4    19    20    1
     5    20    21   ar
     6    21    22   ar
     7    22    23   ar
     8    23    24   ar
     9    24    25   ar
    10    19    26    1
    11    26    27   ar
    12    27    28   ar
    13    28    29   ar
    14    29    30   ar
    15    30    31   ar
    16     2     5    1
    17     5     6   ar
    18     6     7   ar
    19     7     8   ar
    20     8    13    1
    21    13    14   ar
    22    14    15   ar
    23    15    16   ar
    24    16    17   ar
    25    17    18   ar
    26     8     9   ar
    27     9    10   ar
    28    10    11    1
    29    25    20   ar
    30    31    26   ar
    31    10     5   ar
    32    18    13   ar
    33     3     4    1
    34    11    12    1
@<TRIPOS>MOLECULE
*****
 31 34 0 0 0
SMALL
GASTEIGER

@<TRIPOS>ATOM
      1 O         140.9658  140.1709  161.7854 O.2     1  UNL1       -0.2699
      2 C         142.1457  141.0970  161.7755 C.2     1  UNL1        0.2523
      3 N         142.4805  141.8984  162.9984 N.am    1  UNL1       -0.2949
      4 H         143.2550  142.5062  162.9919 H       1  UNL1        0.1503
      5 C         142.9909  141.2218  160.5425 C.ar    1  UNL1        0.1253
      6 C         143.2660  140.0140  159.6965 C.ar    1  UNL1        0.1098
      7 N         144.1111  140.1387  158.4635 N.ar    1  UNL1       -0.2233
      8 C         144.6811  141.4712  158.0766 C.ar    1  UNL1        0.1849
      9 N         144.4060  142.6789  158.9226 N.ar    1  UNL1       -0.1909
     10 C         143.5608  142.5542  160.1555 C.ar    1  UNL1        0.2289
     11 O         143.2857  143.7619  161.0015 O.3     1  UNL1       -0.4918
     12 H         143.6418  144.5943  160.7598 H       1  UNL1        0.2938
     13 C         145.5262  141.5960  156.8436 C.ar    1  UNL1        0.1386
     14 C         146.7176  142.5074  156.8400 C.ar    1  UNL1        0.0257
     15 C         147.5628  142.6321  155.6070 C.ar    1  UNL1        0.0242
     16 C         147.2165  141.8454  154.3777 C.ar    1  UNL1        0.1222
     17 N         146.0251  140.9341  154.3813 N.ar    1  UNL1       -0.1463
     18 N         145.1800  140.8093  155.6143 N.ar    1  UNL1       -0.1448
     19 C         141.6354  141.7737  164.2314 C.3     1  UNL1        0.1171
     20 C         142.0820  140.8933  165.3609 C.ar    1  UNL1       -0.0003
     21 C         141.8064  141.2955  166.7794 C.ar    1  UNL1       -0.0024
     22 C         142.2530  140.4151  167.9087 C.ar    1  UNL1       -0.0003
     23 C         142.9751  139.1326  167.6196 C.ar    1  UNL1       -0.0000
     24 C         143.2506  138.7304  166.2011 C.ar    1  UNL1       -0.0003
     25 C         142.8041  139.6107  165.0717 C.ar    1  UNL1       -0.0024
     26 C         140.3438  142.5292  164.3349 C.ar    1  UNL1       -0.0003
     27 C         139.0389  141.8127  164.1511 C.ar    1  UNL1       -0.0024
     28 C         137.7472  142.5684  164.2546 C.ar    1  UNL1       -0.0003
     29 C         137.7605  144.0405  164.5420 C.ar    1  UNL1       -0.0000
     30 C         139.0654  144.7570  164.7259 C.ar    1  UNL1       -0.0003
     31 C         140.3570  144.0014  164.6224 C.ar    1  UNL1       -0.0024
@<TRIPOS>BOND
     1     1     2    2
     2     2     3   am
     3     3    19    1
     4    19    20    1
     5    20    21   ar
     6    21    22   ar
     7    22    23   ar
     8    23    24   ar
     9    24    25   ar
    10    19    26    1
    11    26    27   ar
    12    27    28   ar
    13    28    29   ar
    14    29    30   ar
    15    30    31   ar
    16     2     5    1
    17     5     6   ar
    18     6     7   ar
    19     7     8   ar
    20     8    13    1
    21    13    14   ar
    22    14    15   ar
    23    15    16   ar
    24    16    17   ar
    25    17    18   ar
    26     8     9   ar
    27     9    10   ar
    28    10    11    1
    29    25    20   ar
    30    31    26   ar
    31    10     5   ar
    32    18    13   ar
    33     3     4    1
    34    11    12    1
@<TRIPOS>MOLECULE
*****
 31 34 0 0 0
SMALL
GASTEIGER

@<TRIPOS>ATOM
      1 O         140.9979  142.1083  167.7048 O.2     1  UNL1       -0.2699
      2 C         140.0612  141.0218  167.2664 C.2     1  UNL1        0.2523
      3 N         139.9675  140.6525  165.8156 N.am    1  UNL1       -0.2949
      4 H         139.3526  139.9394  165.5280 H       1  UNL1        0.1503
      5 C         139.2182  140.3047  168.2789 C.ar    1  UNL1        0.1253
      6 C         139.4304  140.5534  169.7429 C.ar    1  UNL1        0.1098
      7 N         138.5874  139.8363  170.7554 N.ar    1  UNL1       -0.2233
      8 C         137.5322  138.8705  170.3038 C.ar    1  UNL1        0.1849
      9 N         137.3200  138.6218  168.8399 N.ar    1  UNL1       -0.1909
     10 C         138.1630  139.3389  167.8275 C.ar    1  UNL1        0.2289
     11 O         137.9508  139.0902  166.3635 O.3     1  UNL1       -0.4918
     12 H         137.2917  138.4869  166.0815 H       1  UNL1        0.2938
     13 C         136.6892  138.1534  171.3163 C.ar    1  UNL1        0.1386
     14 C         135.5604  138.8706  171.9956 C.ar    1  UNL1        0.0257
     15 C         134.7174  138.1535  173.0081 C.ar    1  UNL1        0.0242
     16 C         135.0032  136.7191  173.3413 C.ar    1  UNL1        0.1222
     17 N         136.1321  136.0020  172.6621 N.ar    1  UNL1       -0.1463
     18 N         136.9750  136.7191  171.6496 N.ar    1  UNL1       -0.1448
     19 C         140.8104  141.3696  164.8032 C.3     1  UNL1        0.1171
     20 C         142.1971  140.8831  164.5020 C.ar    1  UNL1       -0.0003
     21 C         143.3741  141.7847  164.7291 C.ar    1  UNL1       -0.0024
     22 C         144.7606  141.2982  164.4279 C.ar    1  UNL1       -0.0003
     23 C         144.9702  139.9100  163.8996 C.ar    1  UNL1       -0.0000
     24 C         143.7931  139.0084  163.6724 C.ar    1  UNL1       -0.0003
     25 C         142.4066  139.4949  163.9736 C.ar    1  UNL1       -0.0024
     26 C         140.2669  142.5731  164.0919 C.ar    1  UNL1       -0.0003
     27 C         140.4672  142.7244  162.6130 C.ar    1  UNL1       -0.0024
     28 C         139.9236  143.9280  161.9018 C.ar    1  UNL1       -0.0003
     29 C         139.1797  144.9803  162.6693 C.ar    1  UNL1       -0.0000
     30 C         138.9794  144.8291  164.1482 C.ar    1  UNL1       -0.0003
     31 C         139.5229  143.6255  164.8595 C.ar    1  UNL1       -0.0024
@<TRIPOS>BOND
     1     1     2    2
     2     2     3   am
     3     3    19    1
     4    19    20    1
     5    20    21   ar
     6    21    22   ar
     7    22    23   ar
     8    23    24   ar
     9    24    25   ar
    10    19    26    1
    11    26    27   ar
    12    27    28   ar
    13    28    29   ar
    14    29    30   ar
    15    30    31   ar
    16     2     5    1
    17     5     6   ar
    18     6     7   ar
    19     7     8   ar
    20     8    13    1
    21    13    14   ar
    22    14    15   ar
    23    15    16   ar
    24    16    17   ar
    25    17    18   ar
    26     8     9   ar
    27     9    10   ar
    28    10    11    1
    29    25    20   ar
    30    31    26   ar
    31    10     5   ar
    32    18    13   ar
    33     3     4    1
    34    11    12    1
@<TRIPOS>MOLECULE
*****
 31 34 0 0 0
SMALL
GASTEIGER

@<TRIPOS>ATOM
      1 O         139.6613  142.6911  162.8292 O.2     1  UNL1       -0.2699
      2 C         139.7113  141.4623  161.9704 C.2     1  UNL1        0.2523
      3 N         140.4464  140.2443  162.4458 N.am    1  UNL1       -0.2949
      4 H         140.4792  139.4378  161.8821 H       1  UNL1        0.1503
      5 C         139.0260  141.4515  160.6361 C.ar    1  UNL1        0.1253
      6 C         138.5368  140.1582  160.0546 C.ar    1  UNL1        0.1098
      7 N         137.8516  140.1474  158.7203 N.ar    1  UNL1       -0.2233
      8 C         137.6556  141.4299  157.9675 C.ar    1  UNL1        0.1849
      9 N         138.1447  142.7232  158.5490 N.ar    1  UNL1       -0.1909
     10 C         138.8300  142.7340  159.8833 C.ar    1  UNL1        0.2289
     11 O         139.3191  144.0273  160.4647 O.3     1  UNL1       -0.4918
     12 H         139.1966  144.8285  159.9945 H       1  UNL1        0.2938
     13 C         136.9703  141.4192  156.6332 C.ar    1  UNL1        0.1386
     14 C         136.8838  142.6795  155.8243 C.ar    1  UNL1        0.0257
     15 C         136.1985  142.6687  154.4900 C.ar    1  UNL1        0.0242
     16 C         135.5999  141.3976  153.9646 C.ar    1  UNL1        0.1222
     17 N         135.6864  140.1374  154.7735 N.ar    1  UNL1       -0.1463
     18 N         136.3717  140.1482  156.1078 N.ar    1  UNL1       -0.1448
     19 C         141.1316  140.2551  163.7801 C.3     1  UNL1        0.1171
     20 C         142.6027  140.5358  163.8655 C.ar    1  UNL1       -0.0003
     21 C         143.5729  139.4055  164.0415 C.ar    1  UNL1       -0.0024
     22 C         145.0439  139.6863  164.1269 C.ar    1  UNL1       -0.0003
     23 C         145.5447  141.0973  164.0363 C.ar    1  UNL1       -0.0000
     24 C         144.5744  142.2276  163.8603 C.ar    1  UNL1       -0.0003
     25 C         143.1034  141.9469  163.7749 C.ar    1  UNL1       -0.0024
     26 C         140.3459  139.9852  165.0290 C.ar    1  UNL1       -0.0003
     27 C         140.9128  140.3573  166.3669 C.ar    1  UNL1       -0.0024
     28 C         140.1270  140.0873  167.6158 C.ar    1  UNL1       -0.0003
     29 C         138.7743  139.4453  167.5267 C.ar    1  UNL1       -0.0000
     30 C         138.2073  139.0733  166.1888 C.ar    1  UNL1       -0.0003
     31 C         138.9931  139.3432  164.9399 C.ar    1  UNL1       -0.0024
@<TRIPOS>BOND
     1     1     2    2
     2     2     3   am
     3     3    19    1
     4    19    20    1
     5    20    21   ar
     6    21    22   ar
     7    22    23   ar
     8    23    24   ar
     9    24    25   ar
    10    19    26    1
    11    26    27   ar
    12    27    28   ar
    13    28    29   ar
    14    29    30   ar
    15    30    31   ar
    16     2     5    1
    17     5     6   ar
    18     6     7   ar
    19     7     8   ar
    20     8    13    1
    21    13    14   ar
    22    14    15   ar
    23    15    16   ar
    24    16    17   ar
    25    17    18   ar
    26     8     9   ar
    27     9    10   ar
    28    10    11    1
    29    25    20   ar
    30    31    26   ar
    31    10     5   ar
    32    18    13   ar
    33     3     4    1
    34    11    12    1
@<TRIPOS>MOLECULE
*****
 31 34 0 0 0
SMALL
GASTEIGER

@<TRIPOS>ATOM
      1 O         139.4090  142.4387  162.7482 O.2     1  UNL1       -0.2699
      2 C         139.5591  141.2592  161.8337 C.2     1  UNL1        0.2523
      3 N         140.3610  140.0691  162.2701 N.am    1  UNL1       -0.2949
      4 H         140.4595  139.2949  161.6699 H       1  UNL1        0.1503
      5 C         138.9072  141.2698  160.4828 C.ar    1  UNL1        0.1253
      6 C         138.4357  139.9856  159.8674 C.ar    1  UNL1        0.1098
      7 N         137.7838  139.9963  158.5165 N.ar    1  UNL1       -0.2233
      8 C         137.6034  141.2911  157.7810 C.ar    1  UNL1        0.1849
      9 N         138.0750  142.5752  158.3963 N.ar    1  UNL1       -0.1909
     10 C         138.7268  142.5646  159.7472 C.ar    1  UNL1        0.2289
     11 O         139.1984  143.8488  160.3626 O.3     1  UNL1       -0.4918
     12 H         139.0857  144.6576  159.9031 H       1  UNL1        0.2938
     13 C         136.9516  141.3018  156.4300 C.ar    1  UNL1        0.1386
     14 C         137.3578  142.3232  155.4093 C.ar    1  UNL1        0.0257
     15 C         136.7059  142.3338  154.0584 C.ar    1  UNL1        0.0242
     16 C         135.6478  141.3231  153.7282 C.ar    1  UNL1        0.1222
     17 N         135.2416  140.3018  154.7490 N.ar    1  UNL1       -0.1463
     18 N         135.8935  140.2911  156.0999 N.ar    1  UNL1       -0.1448
     19 C         141.0129  140.0584  163.6210 C.3     1  UNL1        0.1171
     20 C         140.1923  139.7897  164.8476 C.ar    1  UNL1       -0.0003
     21 C         139.1005  138.7619  164.8093 C.ar    1  UNL1       -0.0024
     22 C         138.2800  138.4933  166.0359 C.ar    1  UNL1       -0.0003
     23 C         138.5513  139.2525  167.3008 C.ar    1  UNL1       -0.0000
     24 C         139.6431  140.2803  167.3391 C.ar    1  UNL1       -0.0003
     25 C         140.4636  140.5490  166.1125 C.ar    1  UNL1       -0.0024
     26 C         142.4853  140.3164  163.7453 C.ar    1  UNL1       -0.0003
     27 C         143.4038  139.2188  164.1941 C.ar    1  UNL1       -0.0024
     28 C         144.8762  139.4768  164.3184 C.ar    1  UNL1       -0.0003
     29 C         145.4301  140.8325  163.9939 C.ar    1  UNL1       -0.0000
     30 C         144.5115  141.9302  163.5451 C.ar    1  UNL1       -0.0003
     31 C         143.0392  141.6722  163.4208 C.ar    1  UNL1       -0.0024
@<TRIPOS>BOND
     1     1     2    2
     2     2     3   am
     3     3    19    1
     4    19    20    1
     5    20    21   ar
     6    21    22   ar
     7    22    23   ar
     8    23    24   ar
     9    24    25   ar
    10    19    26    1
    11    26    27   ar
    12    27    28   ar
    13    28    29   ar
    14    29    30   ar
    15    30    31   ar
    16     2     5    1
    17     5     6   ar
    18     6     7   ar
    19     7     8   ar
    20     8    13    1
    21    13    14   ar
    22    14    15   ar
    23    15    16   ar
    24    16    17   ar
    25    17    18   ar
    26     8     9   ar
    27     9    10   ar
    28    10    11    1
    29    25    20   ar
    30    31    26   ar
    31    10     5   ar
    32    18    13   ar
    33     3     4    1
    34    11    12    1
