@<TRIPOS>MOLECULE
*****
 29 32 0 0 0
SMALL
GASTEIGER

@<TRIPOS>ATOM
      1 C         141.5063  144.4633  162.7287 C.ar    1  UNL1        0.1502
      2 C         140.3735  144.9175  163.6007 C.ar    1  UNL1        0.0375
      3 C         140.0752  144.1937  164.8803 C.ar    1  UNL1        0.0238
      4 C         140.9097  143.0158  165.2878 C.ar    1  UNL1        0.1030
      5 N         142.0426  142.5616  164.4157 N.ar    1  UNL1       -0.1468
      6 N         142.3409  143.2853  163.1362 N.ar    1  UNL1       -0.1331
      7 C         140.6114  142.2921  166.5673 C.ar    1  UNL1        0.0194
      8 C         141.2146  142.7671  167.8559 C.ar    1  UNL1        0.0016
      9 C         140.9163  142.0434  169.1354 C.ar    1  UNL1        0.0000
     10 C         140.0148  140.8446  169.1264 C.ar    1  UNL1        0.0000
     11 C         139.4114  140.3696  167.8378 C.ar    1  UNL1        0.0000
     12 C         138.5099  139.1708  167.8288 C.ar    1  UNL1        0.0000
     13 C         137.9066  138.6958  166.5403 C.ar    1  UNL1        0.0000
     14 C         138.2049  139.4195  165.2607 C.ar    1  UNL1        0.0000
     15 C         139.1065  140.6183  165.2697 C.ar    1  UNL1        0.0000
     16 C         139.7097  141.0933  166.5583 C.ar    1  UNL1        0.0015
     17 N         141.8046  145.1870  161.4492 N.pl3   1  UNL1       -0.3182
     18 H         142.4410  145.9382  161.4453 H       1  UNL1        0.1482
     19 C         140.5588  144.8710  156.1339 C.3     1  UNL1        0.0158
     20 C         140.8886  144.9461  157.5952 C.3     1  UNL1        0.0435
     21 C         141.8720  145.9415  157.0547 C.3     1  UNL1        0.0158
     22 C         141.5599  145.3669  158.8689 C.3     1  UNL1        0.0340
     23 C         141.1333  144.7662  160.1754 C.3     1  UNL1        0.0730
     24 C         140.0353  143.7448  160.2083 C.3     1  UNL1        0.0340
     25 C         139.3640  143.3240  158.9347 C.3     1  UNL1        0.0435
     26 C         138.6137  142.4747  159.9175 C.3     1  UNL1        0.0158
     27 C         138.4321  142.6082  158.0023 C.3     1  UNL1        0.0158
     28 N         139.7906  143.9246  157.6281 N.3     1  UNL1       -0.3015
     29 H         138.9651  144.3666  157.2237 H       1  UNL1        0.1231
@<TRIPOS>BOND
     1    19    20    1
     2    20    21    1
     3    20    22    1
     4    22    23    1
     5    23    17    1
     6    17     1    1
     7     1     2   ar
     8     2     3   ar
     9     3     4   ar
    10     4     7    1
    11     7     8   ar
    12     8     9   ar
    13     9    10   ar
    14    10    11   ar
    15    11    12   ar
    16    12    13   ar
    17    13    14   ar
    18    14    15   ar
    19    15    16   ar
    20     4     5   ar
    21     5     6   ar
    22    23    24    1
    23    24    25    1
    24    25    26    1
    25    25    27    1
    26    25    28    1
    27    28    20    1
    28     6     1   ar
    29    16     7   ar
    30    16    11   ar
    31    17    18    1
    32    28    29    1
@<TRIPOS>MOLECULE
*****
 29 32 0 0 0
SMALL
GASTEIGER

@<TRIPOS>ATOM
      1 C         141.6013  144.4172  162.6583 C.ar    1  UNL1        0.1502
      2 C         140.4862  144.8855  163.5455 C.ar    1  UNL1        0.0375
      3 C         140.1992  144.1685  164.8313 C.ar    1  UNL1        0.0238
      4 C         141.0274  142.9831  165.2300 C.ar    1  UNL1        0.1030
      5 N         142.1426  142.5147  164.3428 N.ar    1  UNL1       -0.1468
      6 N         142.4295  143.2318  163.0569 N.ar    1  UNL1       -0.1331
      7 C         140.7404  142.2660  166.5159 C.ar    1  UNL1        0.0194
      8 C         141.3979  142.7142  167.7874 C.ar    1  UNL1        0.0016
      9 C         141.1109  141.9972  169.0733 C.ar    1  UNL1        0.0000
     10 C         140.1665  140.8319  169.0877 C.ar    1  UNL1        0.0000
     11 C         139.5090  140.3837  167.8161 C.ar    1  UNL1        0.0000
     12 C         138.5646  139.2184  167.8304 C.ar    1  UNL1        0.0000
     13 C         137.9072  138.7702  166.5589 C.ar    1  UNL1        0.0000
     14 C         138.1941  139.4873  165.2730 C.ar    1  UNL1        0.0000
     15 C         139.1385  140.6525  165.2587 C.ar    1  UNL1        0.0000
     16 C         139.7960  141.1007  166.5302 C.ar    1  UNL1        0.0015
     17 N         141.8882  145.1343  161.3724 N.pl3   1  UNL1       -0.3182
     18 H         142.5454  145.8671  161.3535 H       1  UNL1        0.1482
     19 C         138.3912  142.6225  158.0010 C.3     1  UNL1        0.0158
     20 C         139.3569  143.3200  158.9126 C.3     1  UNL1        0.0435
     21 C         138.6330  142.4619  159.9074 C.3     1  UNL1        0.0158
     22 C         140.0712  143.7194  160.1697 C.3     1  UNL1        0.0340
     23 C         141.1739  144.7348  160.1153 C.3     1  UNL1        0.0730
     24 C         141.5624  145.3506  158.8039 C.3     1  UNL1        0.0340
     25 C         140.8482  144.9511  157.5469 C.3     1  UNL1        0.0435
     26 C         141.8201  145.9480  156.9886 C.3     1  UNL1        0.0158
     27 C         140.4714  144.8979  156.0959 C.3     1  UNL1        0.0158
     28 N         139.7454  143.9358  157.6012 N.3     1  UNL1       -0.3015
     29 H         140.0198  143.1699  156.9860 H       1  UNL1        0.1231
@<TRIPOS>BOND
     1    19    20    1
     2    20    21    1
     3    20    22    1
     4    22    23    1
     5    23    17    1
     6    17     1    1
     7     1     2   ar
     8     2     3   ar
     9     3     4   ar
    10     4     7    1
    11     7     8   ar
    12     8     9   ar
    13     9    10   ar
    14    10    11   ar
    15    11    12   ar
    16    12    13   ar
    17    13    14   ar
    18    14    15   ar
    19    15    16   ar
    20     4     5   ar
    21     5     6   ar
    22    23    24    1
    23    24    25    1
    24    25    26    1
    25    25    27    1
    26    25    28    1
    27    28    20    1
    28     6     1   ar
    29    16     7   ar
    30    16    11   ar
    31    17    18    1
    32    28    29    1
@<TRIPOS>MOLECULE
*****
 29 32 0 0 0
SMALL
GASTEIGER

@<TRIPOS>ATOM
      1 C         143.0042  141.8097  163.3532 C.ar    1  UNL1        0.1502
      2 C         143.8134  142.4071  164.4660 C.ar    1  UNL1        0.0375
      3 C         143.5884  141.9606  165.8802 C.ar    1  UNL1        0.0238
      4 C         142.5542  140.9168  166.1816 C.ar    1  UNL1        0.1030
      5 N         141.7450  140.3194  165.0688 N.ar    1  UNL1       -0.1468
      6 N         141.9700  140.7659  163.6545 N.ar    1  UNL1       -0.1331
      7 C         142.3292  140.4703  167.5958 C.ar    1  UNL1        0.0194
      8 C         142.8747  139.1532  168.0623 C.ar    1  UNL1        0.0016
      9 C         142.6497  138.7067  169.4765 C.ar    1  UNL1        0.0000
     10 C         141.8792  139.5773  170.4243 C.ar    1  UNL1        0.0000
     11 C         141.3336  140.8945  169.9578 C.ar    1  UNL1        0.0000
     12 C         140.5630  141.7650  170.9056 C.ar    1  UNL1        0.0000
     13 C         140.0174  143.0821  170.4391 C.ar    1  UNL1        0.0000
     14 C         140.2425  143.5286  169.0249 C.ar    1  UNL1        0.0000
     15 C         141.0130  142.6580  168.0771 C.ar    1  UNL1        0.0000
     16 C         141.5586  141.3409  168.5436 C.ar    1  UNL1        0.0015
     17 N         143.2292  142.2562  161.9390 N.pl3   1  UNL1       -0.3182
     18 H         143.9400  141.8411  161.3989 H       1  UNL1        0.1482
     19 C         139.6159  146.3423  161.5495 C.3     1  UNL1        0.0158
     20 C         140.6096  145.2223  161.6396 C.3     1  UNL1        0.0435
     21 C         140.2186  145.3404  163.0829 C.3     1  UNL1        0.0158
     22 C         141.4675  144.1433  162.2309 C.3     1  UNL1        0.0340
     23 C         142.3713  143.3353  161.3476 C.3     1  UNL1        0.0730
     24 C         142.4171  143.6062  159.8730 C.3     1  UNL1        0.0340
     25 C         141.5592  144.6852  159.2817 C.3     1  UNL1        0.0435
     26 C         142.2481  144.1924  158.0437 C.3     1  UNL1        0.0158
     27 C         140.9405  145.5931  158.2604 C.3     1  UNL1        0.0158
     28 N         140.6555  145.4933  160.1649 N.3     1  UNL1       -0.3015
     29 H         139.7070  145.3646  159.8123 H       1  UNL1        0.1231
@<TRIPOS>BOND
     1    19    20    1
     2    20    21    1
     3    20    22    1
     4    22    23    1
     5    23    17    1
     6    17     1    1
     7     1     2   ar
     8     2     3   ar
     9     3     4   ar
    10     4     7    1
    11     7     8   ar
    12     8     9   ar
    13     9    10   ar
    14    10    11   ar
    15    11    12   ar
    16    12    13   ar
    17    13    14   ar
    18    14    15   ar
    19    15    16   ar
    20     4     5   ar
    21     5     6   ar
    22    23    24    1
    23    24    25    1
    24    25    26    1
    25    25    27    1
    26    25    28    1
    27    28    20    1
    28     6     1   ar
    29    16     7   ar
    30    16    11   ar
    31    17    18    1
    32    28    29    1
@<TRIPOS>MOLECULE
*****
 29 32 0 0 0
SMALL
GASTEIGER

@<TRIPOS>ATOM
      1 C         140.9157  144.6903  162.1090 C.ar    1  UNL1        0.1502
      2 C         142.0061  144.9880  163.0951 C.ar    1  UNL1        0.0375
      3 C         142.0979  144.2045  164.3709 C.ar    1  UNL1        0.0238
      4 C         141.0994  143.1234  164.6606 C.ar    1  UNL1        0.1030
      5 N         140.0089  142.8256  163.6745 N.ar    1  UNL1       -0.1468
      6 N         139.9171  143.6091  162.3987 N.ar    1  UNL1       -0.1331
      7 C         141.1912  142.3399  165.9365 C.ar    1  UNL1        0.0194
      8 C         140.4764  142.8202  167.1646 C.ar    1  UNL1        0.0016
      9 C         140.5683  142.0368  168.4405 C.ar    1  UNL1        0.0000
     10 C         141.3748  140.7730  168.4882 C.ar    1  UNL1        0.0000
     11 C         142.0896  140.2926  167.2600 C.ar    1  UNL1        0.0000
     12 C         142.8962  139.0289  167.3077 C.ar    1  UNL1        0.0000
     13 C         143.6110  138.5486  166.0795 C.ar    1  UNL1        0.0000
     14 C         143.5191  139.3321  164.8037 C.ar    1  UNL1        0.0000
     15 C         142.7126  140.5958  164.7560 C.ar    1  UNL1        0.0000
     16 C         141.9978  141.0761  165.9841 C.ar    1  UNL1        0.0015
     17 N         140.8239  145.4737  160.8331 N.pl3   1  UNL1       -0.3182
     18 H         140.3011  146.3074  160.8040 H       1  UNL1        0.1482
     19 C         144.1609  142.5942  157.5963 C.3     1  UNL1        0.0158
     20 C         143.2402  143.3928  158.4707 C.3     1  UNL1        0.0435
     21 C         143.8620  142.4948  159.4987 C.3     1  UNL1        0.0158
     22 C         142.5354  143.8796  159.7021 C.3     1  UNL1        0.0340
     23 C         141.5287  144.9869  159.6017 C.3     1  UNL1        0.0730
     24 C         141.2267  145.6076  158.2699 C.3     1  UNL1        0.0340
     25 C         141.9314  145.1208  157.0385 C.3     1  UNL1        0.0435
     26 C         141.0649  146.1879  156.4381 C.3     1  UNL1        0.0158
     27 C         142.3352  145.0046  155.5986 C.3     1  UNL1        0.0158
     28 N         142.9382  144.0134  157.1389 N.3     1  UNL1       -0.3015
     29 H         143.8186  144.3824  156.7796 H       1  UNL1        0.1231
@<TRIPOS>BOND
     1    19    20    1
     2    20    21    1
     3    20    22    1
     4    22    23    1
     5    23    17    1
     6    17     1    1
     7     1     2   ar
     8     2     3   ar
     9     3     4   ar
    10     4     7    1
    11     7     8   ar
    12     8     9   ar
    13     9    10   ar
    14    10    11   ar
    15    11    12   ar
    16    12    13   ar
    17    13    14   ar
    18    14    15   ar
    19    15    16   ar
    20     4     5   ar
    21     5     6   ar
    22    23    24    1
    23    24    25    1
    24    25    26    1
    25    25    27    1
    26    25    28    1
    27    28    20    1
    28     6     1   ar
    29    16     7   ar
    30    16    11   ar
    31    17    18    1
    32    28    29    1
@<TRIPOS>MOLECULE
*****
 29 32 0 0 0
SMALL
GASTEIGER

@<TRIPOS>ATOM
      1 C         143.1203  138.8353  159.8058 C.ar    1  UNL1        0.1502
      2 C         142.8546  137.6106  160.6301 C.ar    1  UNL1        0.0375
      3 C         142.6001  137.7385  162.1028 C.ar    1  UNL1        0.0238
      4 C         142.6114  139.0911  162.7512 C.ar    1  UNL1        0.1030
      5 N         142.8771  140.3158  161.9269 N.ar    1  UNL1       -0.1468
      6 N         143.1316  140.1879  160.4541 N.ar    1  UNL1       -0.1331
      7 C         142.3569  139.2190  164.2239 C.ar    1  UNL1        0.0194
      8 C         143.5024  139.1627  165.1906 C.ar    1  UNL1        0.0016
      9 C         143.2479  139.2906  166.6633 C.ar    1  UNL1        0.0000
     10 C         141.8480  139.4748  167.1693 C.ar    1  UNL1        0.0000
     11 C         140.7023  139.5310  166.2026 C.ar    1  UNL1        0.0000
     12 C         139.3024  139.7152  166.7086 C.ar    1  UNL1        0.0000
     13 C         138.1568  139.7714  165.7419 C.ar    1  UNL1        0.0000
     14 C         138.4113  139.6435  164.2692 C.ar    1  UNL1        0.0000
     15 C         139.8113  139.4594  163.7632 C.ar    1  UNL1        0.0000
     16 C         140.9568  139.4031  164.7299 C.ar    1  UNL1        0.0015
     17 N         143.3748  138.7074  158.3331 N.pl3   1  UNL1       -0.3182
     18 H         144.1181  139.2011  157.9172 H       1  UNL1        0.1482
     19 C         139.0719  136.9598  155.4459 C.3     1  UNL1        0.0158
     20 C         140.2602  137.4245  156.2346 C.3     1  UNL1        0.0435
     21 C         139.3671  138.6209  156.3797 C.3     1  UNL1        0.0158
     22 C         141.1382  138.3047  157.0738 C.3     1  UNL1        0.0340
     23 C         142.4966  137.8271  157.4939 C.3     1  UNL1        0.0730
     24 C         142.9770  136.4693  157.0748 C.3     1  UNL1        0.0340
     25 C         142.0990  135.5891  156.2357 C.3     1  UNL1        0.0435
     26 C         143.2970  134.6984  156.3820 C.3     1  UNL1        0.0158
     27 C         141.6369  134.3995  155.4473 C.3     1  UNL1        0.0158
     28 N         140.7405  136.0667  155.8156 N.3     1  UNL1       -0.3015
     29 H         140.0665  135.3916  156.1764 H       1  UNL1        0.1231
@<TRIPOS>BOND
     1    19    20    1
     2    20    21    1
     3    20    22    1
     4    22    23    1
     5    23    17    1
     6    17     1    1
     7     1     2   ar
     8     2     3   ar
     9     3     4   ar
    10     4     7    1
    11     7     8   ar
    12     8     9   ar
    13     9    10   ar
    14    10    11   ar
    15    11    12   ar
    16    12    13   ar
    17    13    14   ar
    18    14    15   ar
    19    15    16   ar
    20     4     5   ar
    21     5     6   ar
    22    23    24    1
    23    24    25    1
    24    25    26    1
    25    25    27    1
    26    25    28    1
    27    28    20    1
    28     6     1   ar
    29    16     7   ar
    30    16    11   ar
    31    17    18    1
    32    28    29    1
@<TRIPOS>MOLECULE
*****
 29 32 0 0 0
SMALL
GASTEIGER

@<TRIPOS>ATOM
      1 C         142.2976  138.3727  160.1496 C.ar    1  UNL1        0.1502
      2 C         142.8792  137.7876  161.4024 C.ar    1  UNL1        0.0375
      3 C         142.1734  137.9702  162.7133 C.ar    1  UNL1        0.0238
      4 C         140.8860  138.7378  162.7715 C.ar    1  UNL1        0.1030
      5 N         140.3044  139.3229  161.5186 N.ar    1  UNL1       -0.1468
      6 N         141.0102  139.1403  160.2077 N.ar    1  UNL1       -0.1331
      7 C         140.1803  138.9203  164.0824 C.ar    1  UNL1        0.0194
      8 C         139.1344  137.9358  164.5146 C.ar    1  UNL1        0.0016
      9 C         138.4286  138.1184  165.8255 C.ar    1  UNL1        0.0000
     10 C         138.7687  139.2855  166.7042 C.ar    1  UNL1        0.0000
     11 C         139.8146  140.2701  166.2721 C.ar    1  UNL1        0.0000
     12 C         140.1546  141.4372  167.1508 C.ar    1  UNL1        0.0000
     13 C         141.2005  142.4217  166.7186 C.ar    1  UNL1        0.0000
     14 C         141.9063  142.2391  165.4076 C.ar    1  UNL1        0.0000
     15 C         141.5662  141.0721  164.5289 C.ar    1  UNL1        0.0000
     16 C         140.5204  140.0875  164.9611 C.ar    1  UNL1        0.0015
     17 N         143.0034  138.1901  158.8387 N.pl3   1  UNL1       -0.3182
     18 H         143.8761  138.6192  158.6855 H       1  UNL1        0.1482
     19 C         139.5901  136.5837  154.8797 C.3     1  UNL1        0.0158
     20 C         140.5351  137.0100  155.9638 C.3     1  UNL1        0.0435
     21 C         139.6104  138.1909  155.9451 C.3     1  UNL1        0.0158
     22 C         141.1591  137.8463  157.0414 C.3     1  UNL1        0.0340
     23 C         142.3794  137.3537  157.7610 C.3     1  UNL1        0.0730
     24 C         142.9759  136.0248  157.4031 C.3     1  UNL1        0.0340
     25 C         142.3520  135.1884  156.3256 C.3     1  UNL1        0.0435
     26 C         143.4934  134.2979  156.7184 C.3     1  UNL1        0.0158
     27 C         142.1244  134.0428  155.3844 C.3     1  UNL1        0.0158
     28 N         141.1316  135.6810  155.6059 N.3     1  UNL1       -0.3015
     29 H         140.4025  134.9825  155.7504 H       1  UNL1        0.1231
@<TRIPOS>BOND
     1    19    20    1
     2    20    21    1
     3    20    22    1
     4    22    23    1
     5    23    17    1
     6    17     1    1
     7     1     2   ar
     8     2     3   ar
     9     3     4   ar
    10     4     7    1
    11     7     8   ar
    12     8     9   ar
    13     9    10   ar
    14    10    11   ar
    15    11    12   ar
    16    12    13   ar
    17    13    14   ar
    18    14    15   ar
    19    15    16   ar
    20     4     5   ar
    21     5     6   ar
    22    23    24    1
    23    24    25    1
    24    25    26    1
    25    25    27    1
    26    25    28    1
    27    28    20    1
    28     6     1   ar
    29    16     7   ar
    30    16    11   ar
    31    17    18    1
    32    28    29    1
@<TRIPOS>MOLECULE
*****
 29 32 0 0 0
SMALL
GASTEIGER

@<TRIPOS>ATOM
      1 C         142.5390  138.5241  160.0843 C.ar    1  UNL1        0.1502
      2 C         142.5964  139.9431  160.5671 C.ar    1  UNL1        0.0375
      3 C         141.9497  140.3198  161.8670 C.ar    1  UNL1        0.0238
      4 C         141.2455  139.2776  162.6842 C.ar    1  UNL1        0.1030
      5 N         141.1880  137.8585  162.2014 N.ar    1  UNL1       -0.1468
      6 N         141.8348  137.4818  160.9015 N.ar    1  UNL1       -0.1331
      7 C         140.5987  139.6543  163.9841 C.ar    1  UNL1        0.0194
      8 C         139.2095  140.2199  163.9944 C.ar    1  UNL1        0.0016
      9 C         138.5628  140.5966  165.2944 C.ar    1  UNL1        0.0000
     10 C         139.3052  140.4077  166.5839 C.ar    1  UNL1        0.0000
     11 C         140.6945  139.8421  166.5736 C.ar    1  UNL1        0.0000
     12 C         141.4369  139.6532  167.8632 C.ar    1  UNL1        0.0000
     13 C         142.8262  139.0876  167.8529 C.ar    1  UNL1        0.0000
     14 C         143.4729  138.7109  166.5529 C.ar    1  UNL1        0.0000
     15 C         142.7305  138.8998  165.2634 C.ar    1  UNL1        0.0000
     16 C         141.3413  139.4654  165.2737 C.ar    1  UNL1        0.0015
     17 N         143.1857  138.1474  158.7844 N.pl3   1  UNL1       -0.3182
     18 H         144.1213  138.3988  158.6090 H       1  UNL1        0.1482
     19 C         141.7715  134.2359  155.2342 C.3     1  UNL1        0.0158
     20 C         142.1453  135.3173  156.2041 C.3     1  UNL1        0.0435
     21 C         143.3111  134.3910  156.3848 C.3     1  UNL1        0.0158
     22 C         142.9240  136.0771  157.2367 C.3     1  UNL1        0.0340
     23 C         142.4070  137.3876  157.7517 C.3     1  UNL1        0.0730
     24 C         141.1113  137.9383  157.2342 C.3     1  UNL1        0.0340
     25 C         140.3326  137.1785  156.2016 C.3     1  UNL1        0.0435
     26 C         139.4372  138.3688  156.3794 C.3     1  UNL1        0.0158
     27 C         139.2429  136.8321  155.2307 C.3     1  UNL1        0.0158
     28 N         140.8496  135.8681  155.6865 N.3     1  UNL1       -0.3015
     29 H         140.9550  135.9694  154.6770 H       1  UNL1        0.1231
@<TRIPOS>BOND
     1    19    20    1
     2    20    21    1
     3    20    22    1
     4    22    23    1
     5    23    17    1
     6    17     1    1
     7     1     2   ar
     8     2     3   ar
     9     3     4   ar
    10     4     7    1
    11     7     8   ar
    12     8     9   ar
    13     9    10   ar
    14    10    11   ar
    15    11    12   ar
    16    12    13   ar
    17    13    14   ar
    18    14    15   ar
    19    15    16   ar
    20     4     5   ar
    21     5     6   ar
    22    23    24    1
    23    24    25    1
    24    25    26    1
    25    25    27    1
    26    25    28    1
    27    28    20    1
    28     6     1   ar
    29    16     7   ar
    30    16    11   ar
    31    17    18    1
    32    28    29    1
@<TRIPOS>MOLECULE
*****
 29 32 0 0 0
SMALL
GASTEIGER

@<TRIPOS>ATOM
      1 C         140.1726  144.7109  162.1580 C.ar    1  UNL1        0.1502
      2 C         141.3133  145.0953  163.0529 C.ar    1  UNL1        0.0375
      3 C         141.5714  144.3232  164.3128 C.ar    1  UNL1        0.0238
      4 C         140.6887  143.1667  164.6778 C.ar    1  UNL1        0.1030
      5 N         139.5480  142.7821  163.7828 N.ar    1  UNL1       -0.1468
      6 N         139.2899  143.5542  162.5229 N.ar    1  UNL1       -0.1331
      7 C         140.9468  142.3946  165.9376 C.ar    1  UNL1        0.0194
      8 C         140.3731  142.8700  167.2394 C.ar    1  UNL1        0.0016
      9 C         140.6311  142.0979  168.4993 C.ar    1  UNL1        0.0000
     10 C         141.4629  140.8504  168.4574 C.ar    1  UNL1        0.0000
     11 C         142.0366  140.3749  167.1555 C.ar    1  UNL1        0.0000
     12 C         142.8684  139.1273  167.1136 C.ar    1  UNL1        0.0000
     13 C         143.4421  138.6519  165.8117 C.ar    1  UNL1        0.0000
     14 C         143.1840  139.4240  164.5519 C.ar    1  UNL1        0.0000
     15 C         142.3523  140.6715  164.5938 C.ar    1  UNL1        0.0000
     16 C         141.7786  141.1470  165.8956 C.ar    1  UNL1        0.0015
     17 N         139.9146  145.4830  160.8981 N.pl3   1  UNL1       -0.3182
     18 H         139.2550  146.2138  160.8950 H       1  UNL1        0.1482
     19 C         141.4352  145.4522  155.6454 C.3     1  UNL1        0.0158
     20 C         141.0302  145.4492  157.0897 C.3     1  UNL1        0.0435
     21 C         140.0453  146.4409  156.5450 C.3     1  UNL1        0.0158
     22 C         140.2831  145.7907  158.3448 C.3     1  UNL1        0.0340
     23 C         140.6616  145.1415  159.6429 C.3     1  UNL1        0.0730
     24 C         141.7872  144.1509  159.6860 C.3     1  UNL1        0.0340
     25 C         142.5342  143.8095  158.4309 C.3     1  UNL1        0.0435
     26 C         143.2597  142.9364  159.4115 C.3     1  UNL1        0.0158
     27 C         143.5332  143.1648  157.5163 C.3     1  UNL1        0.0158
     28 N         142.1557  144.4586  157.1327 N.3     1  UNL1       -0.3015
     29 H         141.9113  143.7070  156.4879 H       1  UNL1        0.1231
@<TRIPOS>BOND
     1    19    20    1
     2    20    21    1
     3    20    22    1
     4    22    23    1
     5    23    17    1
     6    17     1    1
     7     1     2   ar
     8     2     3   ar
     9     3     4   ar
    10     4     7    1
    11     7     8   ar
    12     8     9   ar
    13     9    10   ar
    14    10    11   ar
    15    11    12   ar
    16    12    13   ar
    17    13    14   ar
    18    14    15   ar
    19    15    16   ar
    20     4     5   ar
    21     5     6   ar
    22    23    24    1
    23    24    25    1
    24    25    26    1
    25    25    27    1
    26    25    28    1
    27    28    20    1
    28     6     1   ar
    29    16     7   ar
    30    16    11   ar
    31    17    18    1
    32    28    29    1
@<TRIPOS>MOLECULE
*****
 29 32 0 0 0
SMALL
GASTEIGER

@<TRIPOS>ATOM
      1 C         142.4096  138.0998  159.3446 C.ar    1  UNL1        0.1502
      2 C         141.0006  138.6135  159.3733 C.ar    1  UNL1        0.0375
      3 C         140.2922  138.7874  160.6840 C.ar    1  UNL1        0.0238
      4 C         140.9928  138.4475  161.9661 C.ar    1  UNL1        0.1030
      5 N         142.4018  137.9337  161.9374 N.ar    1  UNL1       -0.1468
      6 N         143.1102  137.7598  160.6267 N.ar    1  UNL1       -0.1331
      7 C         140.2844  138.6214  163.2768 C.ar    1  UNL1        0.0194
      8 C         139.5183  137.4778  163.8728 C.ar    1  UNL1        0.0016
      9 C         138.8100  137.6517  165.1835 C.ar    1  UNL1        0.0000
     10 C         138.8676  138.9692  165.8982 C.ar    1  UNL1        0.0000
     11 C         139.6337  140.1129  165.3022 C.ar    1  UNL1        0.0000
     12 C         139.6914  141.4304  166.0169 C.ar    1  UNL1        0.0000
     13 C         140.4575  142.5740  165.4209 C.ar    1  UNL1        0.0000
     14 C         141.1659  142.4001  164.1102 C.ar    1  UNL1        0.0000
     15 C         141.1082  141.0826  163.3955 C.ar    1  UNL1        0.0000
     16 C         140.3421  139.9390  163.9915 C.ar    1  UNL1        0.0015
     17 N         143.1179  137.9259  158.0339 N.pl3   1  UNL1       -0.3182
     18 H         143.8916  138.4933  157.8134 H       1  UNL1        0.1482
     19 C         142.3180  133.0659  155.6581 C.3     1  UNL1        0.0158
     20 C         142.5284  134.4064  156.2974 C.3     1  UNL1        0.0435
     21 C         143.2773  133.5366  157.2632 C.3     1  UNL1        0.0158
     22 C         142.9989  135.4448  157.2722 C.3     1  UNL1        0.0340
     23 C         142.6475  136.8874  157.0591 C.3     1  UNL1        0.0730
     24 C         141.8255  137.2915  155.8712 C.3     1  UNL1        0.0340
     25 C         141.3550  136.2530  154.8964 C.3     1  UNL1        0.0435
     26 C         140.7696  137.4834  154.2691 C.3     1  UNL1        0.0158
     27 C         140.6812  135.6418  153.7037 C.3     1  UNL1        0.0158
     28 N         141.7065  134.8105  155.1095 N.3     1  UNL1       -0.3015
     29 H         142.2174  134.5064  154.2808 H       1  UNL1        0.1231
@<TRIPOS>BOND
     1    19    20    1
     2    20    21    1
     3    20    22    1
     4    22    23    1
     5    23    17    1
     6    17     1    1
     7     1     2   ar
     8     2     3   ar
     9     3     4   ar
    10     4     7    1
    11     7     8   ar
    12     8     9   ar
    13     9    10   ar
    14    10    11   ar
    15    11    12   ar
    16    12    13   ar
    17    13    14   ar
    18    14    15   ar
    19    15    16   ar
    20     4     5   ar
    21     5     6   ar
    22    23    24    1
    23    24    25    1
    24    25    26    1
    25    25    27    1
    26    25    28    1
    27    28    20    1
    28     6     1   ar
    29    16     7   ar
    30    16    11   ar
    31    17    18    1
    32    28    29    1
