@<TRIPOS>MOLECULE
*****
 37 42 0 0 0
SMALL
GASTEIGER

@<TRIPOS>ATOM
      1 N         143.1827  142.8785  164.7417 N.3     1  UNL1       -0.2703
      2 C         143.9163  142.6924  163.4467 C.3     1  UNL1        0.0736
      3 C         143.5040  143.4708  162.2325 C.3     1  UNL1        0.0331
      4 C         142.3581  144.4353  162.3134 C.3     1  UNL1        0.0570
      5 C         141.6244  144.6215  163.6085 C.3     1  UNL1        0.0331
      6 C         142.0367  143.8431  164.8226 C.3     1  UNL1        0.0736
      7 N         141.9458  145.2137  161.0992 N.3     1  UNL1       -0.2934
      8 H         142.7646  145.2703  160.4937 H       1  UNL1        0.1236
      9 C         140.8101  144.7291  160.2476 C.3     1  UNL1        0.1152
     10 C         139.9824  143.5609  160.6951 C.ar    1  UNL1        0.0782
     11 C         140.3927  142.1661  160.3261 C.ar    1  UNL1        0.0562
     12 C         139.5651  140.9978  160.7737 C.ar    1  UNL1        0.1752
     13 C         138.3273  141.2243  161.5901 C.ar    1  UNL1        0.1914
     14 C         137.9171  142.6193  161.9591 C.ar    1  UNL1        0.1384
     15 N         138.7447  143.7875  161.5115 N.ar    1  UNL1       -0.2434
     16 O         137.4997  140.0561  162.0376 O.3     1  UNL1       -0.4668
     17 C         137.9099  138.6613  161.6687 C.3     1  UNL1        0.2527
     18 C         139.1476  138.4347  160.8523 C.3     1  UNL1        0.2526
     19 O         139.9753  139.6029  160.4047 O.3     1  UNL1       -0.4683
     20 C         143.5949  142.1002  165.9558 C.3     1  UNL1        0.1056
     21 O         139.5002  138.9505  164.8455 O.2     1  UNL1       -0.2645
     22 C         139.5606  139.5026  166.2389 C.ar    1  UNL1        0.2886
     23 C         138.4923  139.1517  167.2317 C.ar    1  UNL1        0.1974
     24 F         137.3635  138.2486  166.8309 F       1  UNL1       -0.1991
     25 C         138.5527  139.7037  168.6251 C.ar    1  UNL1        0.0551
     26 C         139.6815  140.6067  169.0258 C.ar    1  UNL1        0.0994
     27 N         139.7419  141.1587  170.4192 N.ar    1  UNL1       -0.2400
     28 C         140.8706  142.0617  170.8198 C.ar    1  UNL1        0.1282
     29 C         141.9390  142.4126  169.8271 C.ar    1  UNL1        0.1589
     30 F         143.0678  143.3156  170.2278 F       1  UNL1       -0.2027
     31 C         141.8786  141.8606  168.4337 C.ar    1  UNL1        0.0512
     32 C         140.7498  140.9576  168.0330 C.ar    1  UNL1        0.0808
     33 N         140.6894  140.4056  166.6396 N.ar    1  UNL1       -0.2896
     34 C         141.9176  140.9989  166.0155 C.3     1  UNL1        0.1416
     35 C         142.6041  141.8390  167.0513 C.3     1  UNL1        0.1459
     36 O         143.4979  142.7337  167.8581 O.3     1  UNL1       -0.3793
     37 H         144.2406  143.0293  167.3087 H       1  UNL1        0.2108
@<TRIPOS>BOND
     1    21    22    2
     2    22    23   ar
     3    23    24    1
     4    23    25   ar
     5    25    26   ar
     6    26    27   ar
     7    27    28   ar
     8    28    29   ar
     9    29    30    1
    10    29    31   ar
    11    31    32   ar
    12    32    33   ar
    13    33    34    1
    14    34    35    1
    15    35    36    1
    16    35    20    1
    17    20     1    1
    18     1     2    1
    19     2     3    1
    20     3     4    1
    21     4     7    1
    22     7     9    1
    23     9    10    1
    24    10    11   ar
    25    11    12   ar
    26    12    13   ar
    27    13    14   ar
    28    14    15   ar
    29    13    16    1
    30    16    17    1
    31    17    18    1
    32    18    19    1
    33     4     5    1
    34     5     6    1
    35    33    22   ar
    36     6     1    1
    37    32    26   ar
    38    15    10   ar
    39    35    31    1
    40    19    12    1
    41    36    37    1
    42     7     8    1
@<TRIPOS>MOLECULE
*****
 37 42 0 0 0
SMALL
GASTEIGER

@<TRIPOS>ATOM
      1 N         138.5041  141.7180  164.3767 N.3     1  UNL1       -0.2703
      2 C         138.1384  141.7515  162.9223 C.3     1  UNL1        0.0736
      3 C         138.1202  143.0568  162.1835 C.3     1  UNL1        0.0331
      4 C         138.4676  144.3286  162.8990 C.3     1  UNL1        0.0570
      5 C         138.8332  144.2951  164.3534 C.3     1  UNL1        0.0331
      6 C         138.8514  142.9898  165.0922 C.3     1  UNL1        0.0736
      7 N         138.4493  145.6339  162.1601 N.3     1  UNL1       -0.2934
      8 H         138.1796  146.3502  162.8343 H       1  UNL1        0.1236
      9 C         139.6908  146.1269  161.4778 C.3     1  UNL1        0.1152
     10 C         140.8560  145.2029  161.2815 C.ar    1  UNL1        0.0782
     11 C         141.7393  144.8528  162.4422 C.ar    1  UNL1        0.0562
     12 C         142.9045  143.9288  162.2459 C.ar    1  UNL1        0.1752
     13 C         143.1864  143.3549  160.8890 C.ar    1  UNL1        0.1914
     14 C         142.3030  143.7051  159.7283 C.ar    1  UNL1        0.1384
     15 N         141.1378  144.6291  159.9246 N.ar    1  UNL1       -0.2434
     16 O         144.3516  142.4309  160.6927 O.3     1  UNL1       -0.4668
     17 C         145.2349  142.0807  161.8533 C.3     1  UNL1        0.2527
     18 C         144.9530  142.6546  163.2103 C.3     1  UNL1        0.2526
     19 O         143.7878  143.5786  163.4066 O.3     1  UNL1       -0.4683
     20 C         138.5223  140.4128  165.1156 C.3     1  UNL1        0.1056
     21 O         139.1370  141.4875  170.2525 O.2     1  UNL1       -0.2645
     22 C         140.2516  140.7343  169.5888 C.ar    1  UNL1        0.2886
     23 C         141.4585  140.3281  170.3815 C.ar    1  UNL1        0.1974
     24 F         141.5507  140.6750  171.8380 F       1  UNL1       -0.1991
     25 C         142.5731  139.5750  169.7179 C.ar    1  UNL1        0.0551
     26 C         142.4809  139.2281  168.2614 C.ar    1  UNL1        0.0994
     27 N         143.5955  138.4750  167.5978 N.ar    1  UNL1       -0.2400
     28 C         143.5033  138.1282  166.1414 C.ar    1  UNL1        0.1282
     29 C         142.2964  138.5344  165.3486 C.ar    1  UNL1        0.1589
     30 F         142.2042  138.1875  163.8922 F       1  UNL1       -0.2027
     31 C         141.1818  139.2875  166.0123 C.ar    1  UNL1        0.0512
     32 C         141.2740  139.6343  167.4687 C.ar    1  UNL1        0.0808
     33 N         140.1594  140.3875  168.1324 N.ar    1  UNL1       -0.2896
     34 C         139.1940  140.5776  167.0002 C.3     1  UNL1        0.1416
     35 C         139.7843  139.9425  165.7761 C.3     1  UNL1        0.1459
     36 O         140.1107  139.4057  164.4139 O.3     1  UNL1       -0.3793
     37 H         139.3866  139.6128  163.8027 H       1  UNL1        0.2108
@<TRIPOS>BOND
     1    21    22    2
     2    22    23   ar
     3    23    24    1
     4    23    25   ar
     5    25    26   ar
     6    26    27   ar
     7    27    28   ar
     8    28    29   ar
     9    29    30    1
    10    29    31   ar
    11    31    32   ar
    12    32    33   ar
    13    33    34    1
    14    34    35    1
    15    35    36    1
    16    35    20    1
    17    20     1    1
    18     1     2    1
    19     2     3    1
    20     3     4    1
    21     4     7    1
    22     7     9    1
    23     9    10    1
    24    10    11   ar
    25    11    12   ar
    26    12    13   ar
    27    13    14   ar
    28    14    15   ar
    29    13    16    1
    30    16    17    1
    31    17    18    1
    32    18    19    1
    33     4     5    1
    34     5     6    1
    35    33    22   ar
    36     6     1    1
    37    32    26   ar
    38    15    10   ar
    39    35    31    1
    40    19    12    1
    41    36    37    1
    42     7     8    1
@<TRIPOS>MOLECULE
*****
 37 42 0 0 0
SMALL
GASTEIGER

@<TRIPOS>ATOM
      1 N         138.4470  138.9221  164.3914 N.3     1  UNL1       -0.2703
      2 C         138.8067  137.9963  163.2674 C.3     1  UNL1        0.0736
      3 C         138.5880  138.4221  161.8459 C.3     1  UNL1        0.0331
      4 C         138.0096  139.7737  161.5483 C.3     1  UNL1        0.0570
      5 C         137.6498  140.6995  162.6723 C.3     1  UNL1        0.0331
      6 C         137.8685  140.2737  164.0939 C.3     1  UNL1        0.0736
      7 N         137.7909  140.1995  160.1267 N.3     1  UNL1       -0.2934
      8 H         136.7908  140.3694  160.0207 H       1  UNL1        0.1236
      9 C         138.4950  141.4102  159.5896 C.3     1  UNL1        0.1152
     10 C         139.9058  141.7037  160.0063 C.ar    1  UNL1        0.0782
     11 C         140.1804  142.7712  161.0237 C.ar    1  UNL1        0.0562
     12 C         141.5912  143.0648  161.4404 C.ar    1  UNL1        0.1752
     13 C         142.7272  142.2910  160.8398 C.ar    1  UNL1        0.1914
     14 C         142.4524  141.2235  159.8223 C.ar    1  UNL1        0.1384
     15 N         141.0416  140.9299  159.4056 N.ar    1  UNL1       -0.2434
     16 O         144.1379  142.5846  161.2565 O.3     1  UNL1       -0.4668
     17 C         144.4127  143.6520  162.2739 C.3     1  UNL1        0.2527
     18 C         143.2767  144.4258  162.8745 C.3     1  UNL1        0.2526
     19 O         141.8660  144.1322  162.4578 O.3     1  UNL1       -0.4683
     20 C         138.6656  138.4963  165.8129 C.3     1  UNL1        0.1056
     21 O         142.9991  141.0124  164.1363 O.2     1  UNL1       -0.2645
     22 C         142.5639  141.2953  165.5437 C.ar    1  UNL1        0.2886
     23 C         143.3488  142.2499  166.3938 C.ar    1  UNL1        0.1974
     24 F         144.5689  142.9215  165.8366 F       1  UNL1       -0.1991
     25 C         142.9137  142.5329  167.8011 C.ar    1  UNL1        0.0551
     26 C         141.6936  141.8613  168.3583 C.ar    1  UNL1        0.0994
     27 N         141.2585  142.1442  169.7656 N.ar    1  UNL1       -0.2400
     28 C         140.0384  141.4727  170.3228 C.ar    1  UNL1        0.1282
     29 C         139.2535  140.5181  169.4726 C.ar    1  UNL1        0.1589
     30 F         138.0334  139.8465  170.0299 F       1  UNL1       -0.2027
     31 C         139.6886  140.2351  168.0653 C.ar    1  UNL1        0.0512
     32 C         140.9087  140.9067  167.5082 C.ar    1  UNL1        0.0808
     33 N         141.3439  140.6238  166.1008 N.ar    1  UNL1       -0.2896
     34 C         140.3021  139.6466  165.6427 C.3     1  UNL1        0.1416
     35 C         139.3464  139.4222  166.7769 C.3     1  UNL1        0.1459
     36 O         138.2484  139.0043  167.7096 O.3     1  UNL1       -0.3793
     37 H         137.6648  138.3734  167.2599 H       1  UNL1        0.2108
@<TRIPOS>BOND
     1    21    22    2
     2    22    23   ar
     3    23    24    1
     4    23    25   ar
     5    25    26   ar
     6    26    27   ar
     7    27    28   ar
     8    28    29   ar
     9    29    30    1
    10    29    31   ar
    11    31    32   ar
    12    32    33   ar
    13    33    34    1
    14    34    35    1
    15    35    36    1
    16    35    20    1
    17    20     1    1
    18     1     2    1
    19     2     3    1
    20     3     4    1
    21     4     7    1
    22     7     9    1
    23     9    10    1
    24    10    11   ar
    25    11    12   ar
    26    12    13   ar
    27    13    14   ar
    28    14    15   ar
    29    13    16    1
    30    16    17    1
    31    17    18    1
    32    18    19    1
    33     4     5    1
    34     5     6    1
    35    33    22   ar
    36     6     1    1
    37    32    26   ar
    38    15    10   ar
    39    35    31    1
    40    19    12    1
    41    36    37    1
    42     7     8    1
@<TRIPOS>MOLECULE
*****
 37 42 0 0 0
SMALL
GASTEIGER

@<TRIPOS>ATOM
      1 N         141.1660  138.7604  161.4540 N.3     1  UNL1       -0.2703
      2 C         140.4936  139.0752  160.1507 C.3     1  UNL1        0.0736
      3 C         141.1316  138.6602  158.8581 C.3     1  UNL1        0.0331
      4 C         142.4421  137.9304  158.8689 C.3     1  UNL1        0.0570
      5 C         143.1145  137.6156  160.1722 C.3     1  UNL1        0.0331
      6 C         142.4765  138.0306  161.4648 C.3     1  UNL1        0.0736
      7 N         143.0801  137.5155  157.5763 N.3     1  UNL1       -0.2934
      8 H         143.8798  136.9300  157.8172 H       1  UNL1        0.1236
      9 C         142.2826  136.7602  156.5547 C.3     1  UNL1        0.1152
     10 C         142.4025  135.2678  156.4634 C.ar    1  UNL1        0.0782
     11 C         143.4460  134.5488  157.2660 C.ar    1  UNL1        0.0562
     12 C         143.5659  133.0564  157.1746 C.ar    1  UNL1        0.1752
     13 C         142.6425  132.2830  156.2807 C.ar    1  UNL1        0.1914
     14 C         141.5990  133.0021  155.4780 C.ar    1  UNL1        0.1384
     15 N         141.4791  134.4945  155.5694 N.ar    1  UNL1       -0.2434
     16 O         142.7624  130.7906  156.1893 O.3     1  UNL1       -0.4668
     17 C         143.8058  130.0715  156.9919 C.3     1  UNL1        0.2527
     18 C         144.7293  130.8448  157.8859 C.3     1  UNL1        0.2526
     19 O         144.6093  132.3372  157.9773 O.3     1  UNL1       -0.4683
     20 C         140.5281  139.1753  162.7466 C.3     1  UNL1        0.1056
     21 O         144.4797  142.5994  163.5080 O.2     1  UNL1       -0.2645
     22 C         143.0901  143.1633  163.5430 C.ar    1  UNL1        0.2886
     23 C         142.8814  144.6289  163.7848 C.ar    1  UNL1        0.1974
     24 F         144.0622  145.5306  163.9915 F       1  UNL1       -0.1991
     25 C         141.4919  145.1929  163.8198 C.ar    1  UNL1        0.0551
     26 C         140.3111  144.2912  163.6130 C.ar    1  UNL1        0.0994
     27 N         138.9216  144.8551  163.6480 N.ar    1  UNL1       -0.2400
     28 C         137.7409  143.9534  163.4413 C.ar    1  UNL1        0.1282
     29 C         137.9496  142.4878  163.1996 C.ar    1  UNL1        0.1589
     30 F         136.7688  141.5861  162.9928 F       1  UNL1       -0.2027
     31 C         139.3391  141.9239  163.1646 C.ar    1  UNL1        0.0512
     32 C         140.5198  142.8256  163.3713 C.ar    1  UNL1        0.0808
     33 N         141.9094  142.2617  163.3363 N.ar    1  UNL1       -0.2896
     34 C         141.6494  140.8075  163.0758 C.3     1  UNL1        0.1416
     35 C         140.1654  140.6125  162.9766 C.3     1  UNL1        0.1459
     36 O         138.7572  140.1170  162.8294 O.3     1  UNL1       -0.3793
     37 H         138.7663  139.1609  162.6660 H       1  UNL1        0.2108
@<TRIPOS>BOND
     1    21    22    2
     2    22    23   ar
     3    23    24    1
     4    23    25   ar
     5    25    26   ar
     6    26    27   ar
     7    27    28   ar
     8    28    29   ar
     9    29    30    1
    10    29    31   ar
    11    31    32   ar
    12    32    33   ar
    13    33    34    1
    14    34    35    1
    15    35    36    1
    16    35    20    1
    17    20     1    1
    18     1     2    1
    19     2     3    1
    20     3     4    1
    21     4     7    1
    22     7     9    1
    23     9    10    1
    24    10    11   ar
    25    11    12   ar
    26    12    13   ar
    27    13    14   ar
    28    14    15   ar
    29    13    16    1
    30    16    17    1
    31    17    18    1
    32    18    19    1
    33     4     5    1
    34     5     6    1
    35    33    22   ar
    36     6     1    1
    37    32    26   ar
    38    15    10   ar
    39    35    31    1
    40    19    12    1
    41    36    37    1
    42     7     8    1
@<TRIPOS>MOLECULE
*****
 37 42 0 0 0
SMALL
GASTEIGER

@<TRIPOS>ATOM
      1 N         139.7595  138.4308  160.1392 N.3     1  UNL1       -0.2703
      2 C         139.5366  138.3953  158.6563 C.3     1  UNL1        0.0736
      3 C         140.7008  138.2200  157.7269 C.3     1  UNL1        0.0331
      4 C         142.0879  138.0802  158.2804 C.3     1  UNL1        0.0570
      5 C         142.3108  138.1157  159.7633 C.3     1  UNL1        0.0331
      6 C         141.1466  138.2910  160.6927 C.3     1  UNL1        0.0736
      7 N         143.2522  137.9049  157.3509 N.3     1  UNL1       -0.2934
      8 H         143.9891  137.4450  157.8855 H       1  UNL1        0.1236
      9 C         143.0870  137.1242  156.0808 C.3     1  UNL1        0.1152
     10 C         142.9025  135.6365  156.1336 C.ar    1  UNL1        0.0782
     11 C         143.8718  134.7874  156.9014 C.ar    1  UNL1        0.0562
     12 C         143.6874  133.2998  156.9542 C.ar    1  UNL1        0.1752
     13 C         142.5337  132.6611  156.2392 C.ar    1  UNL1        0.1914
     14 C         141.5644  133.5103  155.4713 C.ar    1  UNL1        0.1384
     15 N         141.7489  134.9980  155.4186 N.ar    1  UNL1       -0.2434
     16 O         142.3492  131.1735  156.2919 O.3     1  UNL1       -0.4668
     17 C         143.3184  130.3243  157.0597 C.3     1  UNL1        0.2527
     18 C         144.4722  130.9629  157.7747 C.3     1  UNL1        0.2526
     19 O         144.6566  132.4505  157.7220 O.3     1  UNL1       -0.4683
     20 C         138.5953  138.6062  161.0686 C.3     1  UNL1        0.1056
     21 O         138.8481  143.8753  161.3717 O.2     1  UNL1       -0.2645
     22 C         138.9920  143.1236  162.6618 C.ar    1  UNL1        0.2886
     23 C         139.1956  143.8707  163.9465 C.ar    1  UNL1        0.1974
     24 F         139.2551  145.3696  163.9411 F       1  UNL1       -0.1991
     25 C         139.3395  143.1191  165.2365 C.ar    1  UNL1        0.0551
     26 C         139.2800  141.6202  165.2419 C.ar    1  UNL1        0.0994
     27 N         139.4240  140.8686  166.5320 N.ar    1  UNL1       -0.2400
     28 C         139.3645  139.3698  166.5373 C.ar    1  UNL1        0.1282
     29 C         139.1610  138.6227  165.2526 C.ar    1  UNL1        0.1589
     30 F         139.1014  137.1238  165.2581 F       1  UNL1       -0.2027
     31 C         139.0170  139.3743  163.9626 C.ar    1  UNL1        0.0512
     32 C         139.0765  140.8731  163.9573 C.ar    1  UNL1        0.0808
     33 N         138.9325  141.6248  162.6672 N.ar    1  UNL1       -0.2896
     34 C         138.7540  140.5128  161.6765 C.3     1  UNL1        0.1416
     35 C         138.8028  139.2135  162.4244 C.3     1  UNL1        0.1459
     36 O         138.8082  137.7871  162.8889 O.3     1  UNL1       -0.3793
     37 H         138.6818  137.1988  162.1280 H       1  UNL1        0.2108
@<TRIPOS>BOND
     1    21    22    2
     2    22    23   ar
     3    23    24    1
     4    23    25   ar
     5    25    26   ar
     6    26    27   ar
     7    27    28   ar
     8    28    29   ar
     9    29    30    1
    10    29    31   ar
    11    31    32   ar
    12    32    33   ar
    13    33    34    1
    14    34    35    1
    15    35    36    1
    16    35    20    1
    17    20     1    1
    18     1     2    1
    19     2     3    1
    20     3     4    1
    21     4     7    1
    22     7     9    1
    23     9    10    1
    24    10    11   ar
    25    11    12   ar
    26    12    13   ar
    27    13    14   ar
    28    14    15   ar
    29    13    16    1
    30    16    17    1
    31    17    18    1
    32    18    19    1
    33     4     5    1
    34     5     6    1
    35    33    22   ar
    36     6     1    1
    37    32    26   ar
    38    15    10   ar
    39    35    31    1
    40    19    12    1
    41    36    37    1
    42     7     8    1
@<TRIPOS>MOLECULE
*****
 37 42 0 0 0
SMALL
GASTEIGER

@<TRIPOS>ATOM
      1 N         140.7609  138.4937  159.8002 N.3     1  UNL1       -0.2703
      2 C         140.6343  138.8952  158.3605 C.3     1  UNL1        0.0736
      3 C         141.8402  139.3708  157.6057 C.3     1  UNL1        0.0331
      4 C         143.1726  139.4449  158.2907 C.3     1  UNL1        0.0570
      5 C         143.2992  139.0433  159.7304 C.3     1  UNL1        0.0331
      6 C         142.0934  138.5678  160.4851 C.3     1  UNL1        0.0736
      7 N         144.3786  139.9205  157.5358 N.3     1  UNL1       -0.2934
      8 H         144.2587  139.6185  156.5689 H       1  UNL1        0.1236
      9 C         144.7090  141.3830  157.4948 C.3     1  UNL1        0.1152
     10 C         143.7045  142.3924  157.9661 C.ar    1  UNL1        0.0782
     11 C         143.4795  142.5970  159.4350 C.ar    1  UNL1        0.0562
     12 C         142.4750  143.6064  159.9063 C.ar    1  UNL1        0.1752
     13 C         141.6955  144.4111  158.9088 C.ar    1  UNL1        0.1914
     14 C         141.9206  144.2063  157.4399 C.ar    1  UNL1        0.1384
     15 N         142.9251  143.1970  156.9687 N.ar    1  UNL1       -0.2434
     16 O         140.6909  145.4204  159.3801 O.3     1  UNL1       -0.4668
     17 C         140.4659  145.6251  160.8489 C.3     1  UNL1        0.2527
     18 C         141.2453  144.8205  161.8464 C.3     1  UNL1        0.2526
     19 O         142.2499  143.8111  161.3751 O.3     1  UNL1       -0.4683
     20 C         139.5551  138.0181  160.5550 C.3     1  UNL1        0.1056
     21 O         138.1012  143.0979  160.5069 O.2     1  UNL1       -0.2645
     22 C         138.1143  142.4187  161.8443 C.ar    1  UNL1        0.2886
     23 C         137.7272  143.1813  163.0766 C.ar    1  UNL1        0.1974
     24 F         137.3270  144.6232  162.9715 F       1  UNL1       -0.1991
     25 C         137.7403  142.5022  164.4140 C.ar    1  UNL1        0.0551
     26 C         138.1405  141.0604  164.5191 C.ar    1  UNL1        0.0994
     27 N         138.1536  140.3812  165.8564 N.ar    1  UNL1       -0.2400
     28 C         138.5538  138.9394  165.9615 C.ar    1  UNL1        0.1282
     29 C         138.9409  138.1768  164.7292 C.ar    1  UNL1        0.1589
     30 F         139.3411  136.7350  164.8343 F       1  UNL1       -0.2027
     31 C         138.9278  138.8559  163.3919 C.ar    1  UNL1        0.0512
     32 C         138.5276  140.2977  163.2868 C.ar    1  UNL1        0.0808
     33 N         138.5145  140.9769  161.9494 N.ar    1  UNL1       -0.2896
     34 C         138.9564  139.8732  161.0347 C.3     1  UNL1        0.1416
     35 C         139.1950  138.6487  161.8676 C.3     1  UNL1        0.1459
     36 O         139.5089  137.2923  162.4260 O.3     1  UNL1       -0.3793
     37 H         139.7772  136.7003  161.7059 H       1  UNL1        0.2108
@<TRIPOS>BOND
     1    21    22    2
     2    22    23   ar
     3    23    24    1
     4    23    25   ar
     5    25    26   ar
     6    26    27   ar
     7    27    28   ar
     8    28    29   ar
     9    29    30    1
    10    29    31   ar
    11    31    32   ar
    12    32    33   ar
    13    33    34    1
    14    34    35    1
    15    35    36    1
    16    35    20    1
    17    20     1    1
    18     1     2    1
    19     2     3    1
    20     3     4    1
    21     4     7    1
    22     7     9    1
    23     9    10    1
    24    10    11   ar
    25    11    12   ar
    26    12    13   ar
    27    13    14   ar
    28    14    15   ar
    29    13    16    1
    30    16    17    1
    31    17    18    1
    32    18    19    1
    33     4     5    1
    34     5     6    1
    35    33    22   ar
    36     6     1    1
    37    32    26   ar
    38    15    10   ar
    39    35    31    1
    40    19    12    1
    41    36    37    1
    42     7     8    1
@<TRIPOS>MOLECULE
*****
 37 42 0 0 0
SMALL
GASTEIGER

@<TRIPOS>ATOM
      1 N         137.6537  141.1204  161.6342 N.3     1  UNL1       -0.2703
      2 C         137.4154  140.9398  163.1041 C.3     1  UNL1        0.0736
      3 C         137.6287  142.0882  164.0452 C.3     1  UNL1        0.0331
      4 C         138.0804  143.4172  163.5164 C.3     1  UNL1        0.0570
      5 C         138.3188  143.5979  162.0465 C.3     1  UNL1        0.0331
      6 C         138.1054  142.4495  161.1055 C.3     1  UNL1        0.0736
      7 N         138.2938  144.5657  164.4576 N.3     1  UNL1       -0.2934
      8 H         137.5195  144.5501  165.1214 H       1  UNL1        0.1236
      9 C         139.5550  144.6491  165.2653 C.3     1  UNL1        0.1152
     10 C         140.8684  144.2734  164.6459 C.ar    1  UNL1        0.0782
     11 C         141.5430  142.9921  165.0375 C.ar    1  UNL1        0.0562
     12 C         142.8564  142.6163  164.4181 C.ar    1  UNL1        0.1752
     13 C         143.4954  143.5218  163.4072 C.ar    1  UNL1        0.1914
     14 C         142.8207  144.8031  163.0157 C.ar    1  UNL1        0.1384
     15 N         141.5073  145.1788  163.6351 N.ar    1  UNL1       -0.2434
     16 O         144.8088  143.1460  162.7878 O.3     1  UNL1       -0.4668
     17 C         145.4834  141.8648  163.1793 C.3     1  UNL1        0.2527
     18 C         144.8445  140.9592  164.1902 C.3     1  UNL1        0.2526
     19 O         143.5310  141.3350  164.8096 O.3     1  UNL1       -0.4683
     20 C         137.4404  139.9721  160.6931 C.3     1  UNL1        0.1056
     21 O         141.8592  137.9147  162.7330 O.2     1  UNL1       -0.2645
     22 C         141.8102  138.0461  161.2395 C.ar    1  UNL1        0.2886
     23 C         142.9782  137.6034  160.4090 C.ar    1  UNL1        0.1974
     24 F         144.1952  137.0292  161.0719 F       1  UNL1       -0.1991
     25 C         142.9292  137.7347  158.9156 C.ar    1  UNL1        0.0551
     26 C         141.7122  138.3089  158.2527 C.ar    1  UNL1        0.0994
     27 N         141.6632  138.4402  156.7593 N.ar    1  UNL1       -0.2400
     28 C         140.4462  139.0143  156.0964 C.ar    1  UNL1        0.1282
     29 C         139.2783  139.4570  156.9270 C.ar    1  UNL1        0.1589
     30 F         138.0612  140.0312  156.2641 F       1  UNL1       -0.2027
     31 C         139.3272  139.3257  158.4204 C.ar    1  UNL1        0.0512
     32 C         140.5442  138.7516  159.0832 C.ar    1  UNL1        0.0808
     33 N         140.5932  138.6202  160.5767 N.ar    1  UNL1       -0.2896
     34 C         139.2566  139.1671  160.9820 C.3     1  UNL1        0.1416
     35 C         138.5257  139.5744  159.7370 C.3     1  UNL1        0.1459
     36 O         137.5678  140.0649  158.6920 O.3     1  UNL1       -0.3793
     37 H         136.7575  140.3830  159.1198 H       1  UNL1        0.2108
@<TRIPOS>BOND
     1    21    22    2
     2    22    23   ar
     3    23    24    1
     4    23    25   ar
     5    25    26   ar
     6    26    27   ar
     7    27    28   ar
     8    28    29   ar
     9    29    30    1
    10    29    31   ar
    11    31    32   ar
    12    32    33   ar
    13    33    34    1
    14    34    35    1
    15    35    36    1
    16    35    20    1
    17    20     1    1
    18     1     2    1
    19     2     3    1
    20     3     4    1
    21     4     7    1
    22     7     9    1
    23     9    10    1
    24    10    11   ar
    25    11    12   ar
    26    12    13   ar
    27    13    14   ar
    28    14    15   ar
    29    13    16    1
    30    16    17    1
    31    17    18    1
    32    18    19    1
    33     4     5    1
    34     5     6    1
    35    33    22   ar
    36     6     1    1
    37    32    26   ar
    38    15    10   ar
    39    35    31    1
    40    19    12    1
    41    36    37    1
    42     7     8    1
@<TRIPOS>MOLECULE
*****
 37 42 0 0 0
SMALL
GASTEIGER

@<TRIPOS>ATOM
      1 N         143.9673  140.1368  162.7995 N.3     1  UNL1       -0.2703
      2 C         144.4074  141.5703  162.8337 C.3     1  UNL1        0.0736
      3 C         144.5082  142.3545  161.5590 C.3     1  UNL1        0.0331
      4 C         144.1689  141.7051  160.2501 C.3     1  UNL1        0.0570
      5 C         143.7289  140.2715  160.2159 C.3     1  UNL1        0.0331
      6 C         143.6281  139.4873  161.4906 C.3     1  UNL1        0.0736
      7 N         144.2697  142.4893  158.9753 N.3     1  UNL1       -0.2934
      8 H         144.5475  141.8321  158.2464 H       1  UNL1        0.1236
      9 C         143.0751  143.2328  158.4556 C.3     1  UNL1        0.1152
     10 C         141.9811  143.6448  159.3954 C.ar    1  UNL1        0.0782
     11 C         141.0192  142.6210  159.9215 C.ar    1  UNL1        0.0562
     12 C         139.9252  143.0331  160.8613 C.ar    1  UNL1        0.1752
     13 C         139.7929  144.4689  161.2751 C.ar    1  UNL1        0.1914
     14 C         140.7549  145.4926  160.7489 C.ar    1  UNL1        0.1384
     15 N         141.8489  145.0805  159.8091 N.ar    1  UNL1       -0.2434
     16 O         138.6989  144.8809  162.2149 O.3     1  UNL1       -0.4668
     17 C         137.7370  143.8572  162.7410 C.3     1  UNL1        0.2527
     18 C         137.8692  142.4215  162.3273 C.3     1  UNL1        0.2526
     19 O         138.9632  142.0094  161.3875 O.3     1  UNL1       -0.4683
     20 C         143.8665  139.3526  164.0741 C.3     1  UNL1        0.1056
     21 O         143.6388  142.6442  168.2013 O.2     1  UNL1       -0.2645
     22 C         142.4156  141.8169  167.9374 C.ar    1  UNL1        0.2886
     23 C         141.2140  141.9505  168.8252 C.ar    1  UNL1        0.1974
     24 F         141.2355  142.9114  169.9769 F       1  UNL1       -0.1991
     25 C         139.9908  141.1233  168.5614 C.ar    1  UNL1        0.0551
     26 C         139.9693  140.1624  167.4097 C.ar    1  UNL1        0.0994
     27 N         138.7462  139.3352  167.1459 N.ar    1  UNL1       -0.2400
     28 C         138.7247  138.3744  165.9943 C.ar    1  UNL1        0.1282
     29 C         139.9264  138.2407  165.1065 C.ar    1  UNL1        0.1589
     30 F         139.9049  137.2798  163.9548 F       1  UNL1       -0.2027
     31 C         141.1495  139.0679  165.3703 C.ar    1  UNL1        0.0512
     32 C         141.1710  140.0288  166.5219 C.ar    1  UNL1        0.0808
     33 N         142.3941  140.8561  166.7858 N.ar    1  UNL1       -0.2896
     34 C         143.3149  140.4100  165.6889 C.3     1  UNL1        0.1416
     35 C         142.5964  139.3776  164.8717 C.3     1  UNL1        0.1459
     36 O         142.1433  138.3400  163.8877 O.3     1  UNL1       -0.3793
     37 H         142.8534  138.1675  163.2497 H       1  UNL1        0.2108
@<TRIPOS>BOND
     1    21    22    2
     2    22    23   ar
     3    23    24    1
     4    23    25   ar
     5    25    26   ar
     6    26    27   ar
     7    27    28   ar
     8    28    29   ar
     9    29    30    1
    10    29    31   ar
    11    31    32   ar
    12    32    33   ar
    13    33    34    1
    14    34    35    1
    15    35    36    1
    16    35    20    1
    17    20     1    1
    18     1     2    1
    19     2     3    1
    20     3     4    1
    21     4     7    1
    22     7     9    1
    23     9    10    1
    24    10    11   ar
    25    11    12   ar
    26    12    13   ar
    27    13    14   ar
    28    14    15   ar
    29    13    16    1
    30    16    17    1
    31    17    18    1
    32    18    19    1
    33     4     5    1
    34     5     6    1
    35    33    22   ar
    36     6     1    1
    37    32    26   ar
    38    15    10   ar
    39    35    31    1
    40    19    12    1
    41    36    37    1
    42     7     8    1
@<TRIPOS>MOLECULE
*****
 37 42 0 0 0
SMALL
GASTEIGER

@<TRIPOS>ATOM
      1 N         139.8474  144.1827  162.6233 N.3     1  UNL1       -0.2703
      2 C         140.3082  143.7676  163.9891 C.3     1  UNL1        0.0736
      3 C         139.5894  142.6747  164.7231 C.3     1  UNL1        0.0331
      4 C         138.4098  141.9968  164.0913 C.3     1  UNL1        0.0570
      5 C         137.9490  142.4119  162.7256 C.3     1  UNL1        0.0331
      6 C         138.6678  143.5048  161.9916 C.3     1  UNL1        0.0736
      7 N         137.6910  140.9038  164.8254 N.3     1  UNL1       -0.2934
      8 H         136.7543  140.8472  164.4257 H       1  UNL1        0.1236
      9 C         138.2461  139.5103  164.8267 C.3     1  UNL1        0.1152
     10 C         139.1392  139.0577  163.7098 C.ar    1  UNL1        0.0782
     11 C         140.6275  139.0470  163.8971 C.ar    1  UNL1        0.0562
     12 C         141.5206  138.5945  162.7802 C.ar    1  UNL1        0.1752
     13 C         140.9257  138.1527  161.4761 C.ar    1  UNL1        0.1914
     14 C         139.4373  138.1634  161.2889 C.ar    1  UNL1        0.1384
     15 N         138.5442  138.6160  162.4058 N.ar    1  UNL1       -0.2434
     16 O         141.8188  137.7002  160.3592 O.3     1  UNL1       -0.4668
     17 C         143.3070  137.6894  160.5464 C.3     1  UNL1        0.2527
     18 C         143.9021  138.1312  161.8505 C.3     1  UNL1        0.2526
     19 O         143.0089  138.5838  162.9674 O.3     1  UNL1       -0.4683
     20 C         140.5661  145.2756  161.8893 C.3     1  UNL1        0.1056
     21 O         144.3113  141.7403  160.7082 O.2     1  UNL1       -0.2645
     22 C         143.7004  142.4782  159.5539 C.ar    1  UNL1        0.2886
     23 C         144.1601  142.1944  158.1546 C.ar    1  UNL1        0.1974
     24 F         145.2307  141.1727  157.9096 F       1  UNL1       -0.1991
     25 C         143.5492  142.9322  157.0003 C.ar    1  UNL1        0.0551
     26 C         142.4786  143.9539  157.2454 C.ar    1  UNL1        0.0994
     27 N         141.8677  144.6918  156.0911 N.ar    1  UNL1       -0.2400
     28 C         140.7971  145.7134  156.3362 C.ar    1  UNL1        0.1282
     29 C         140.3374  145.9972  157.7355 C.ar    1  UNL1        0.1589
     30 F         139.2668  147.0189  157.9806 F       1  UNL1       -0.2027
     31 C         140.9483  145.2594  158.8898 C.ar    1  UNL1        0.0512
     32 C         142.0189  144.2377  158.6447 C.ar    1  UNL1        0.0808
     33 N         142.6298  143.4998  159.7990 N.ar    1  UNL1       -0.2896
     34 C         141.8926  144.0836  160.9677 C.3     1  UNL1        0.1416
     35 C         140.9218  145.0995  160.4427 C.3     1  UNL1        0.1459
     36 O         139.8766  146.1522  160.2202 O.3     1  UNL1       -0.3793
     37 H         139.5002  146.4196  161.0733 H       1  UNL1        0.2108
@<TRIPOS>BOND
     1    21    22    2
     2    22    23   ar
     3    23    24    1
     4    23    25   ar
     5    25    26   ar
     6    26    27   ar
     7    27    28   ar
     8    28    29   ar
     9    29    30    1
    10    29    31   ar
    11    31    32   ar
    12    32    33   ar
    13    33    34    1
    14    34    35    1
    15    35    36    1
    16    35    20    1
    17    20     1    1
    18     1     2    1
    19     2     3    1
    20     3     4    1
    21     4     7    1
    22     7     9    1
    23     9    10    1
    24    10    11   ar
    25    11    12   ar
    26    12    13   ar
    27    13    14   ar
    28    14    15   ar
    29    13    16    1
    30    16    17    1
    31    17    18    1
    32    18    19    1
    33     4     5    1
    34     5     6    1
    35    33    22   ar
    36     6     1    1
    37    32    26   ar
    38    15    10   ar
    39    35    31    1
    40    19    12    1
    41    36    37    1
    42     7     8    1
