@<TRIPOS>MOLECULE
*****
 25 27 0 0 0
SMALL
GASTEIGER

@<TRIPOS>ATOM
      1 C         138.6409  142.4404  159.2810 C.ar    1  UNL1        0.1721
      2 C         138.2151  141.0621  159.6920 C.ar    1  UNL1        0.0356
      3 C         138.3711  140.6228  161.1178 C.ar    1  UNL1       -0.0196
      4 C         138.9529  141.5619  162.1325 C.ar    1  UNL1       -0.0030
      5 C         139.3788  142.9403  161.7214 C.ar    1  UNL1        0.0371
      6 C         139.2227  143.3794  160.2956 C.ar    1  UNL1        0.1721
      7 C         139.1089  141.1228  163.5582 C.3     1  UNL1        0.1215
      8 N         138.6831  139.7445  163.9693 N.am    1  UNL1       -0.2596
      9 C         138.8391  139.3052  165.3950 C.2     1  UNL1        0.3075
     10 O         138.4133  137.9270  165.8061 O.2     1  UNL1       -0.2523
     11 N         139.4210  140.2443  166.4097 N.am    1  UNL1       -0.2612
     12 C         139.8468  141.6227  165.9986 C.3     1  UNL1        0.1123
     13 C         140.4286  142.5618  167.0133 C.3     1  UNL1        0.0939
     14 N         140.5846  142.1225  168.4391 N.3     1  UNL1       -0.2711
     15 C         140.1588  140.7443  168.8501 C.3     1  UNL1        0.0939
     16 C         139.5770  139.8052  167.8354 C.3     1  UNL1        0.1123
     17 C         138.1013  138.8054  162.9546 C.3     1  UNL1        0.0999
     18 C         137.9453  139.2446  161.5288 C.3     1  UNL1        0.0477
     19 C         141.1665  143.0616  169.4538 C.3     1  UNL1        0.0577
     20 C         142.5646  142.8517  169.9551 C.3     1  UNL1        0.0173
     21 C         140.3503  144.2106  169.9671 C.3     1  UNL1        0.0173
     22 C         137.3523  142.3496  157.0268 C.3     1  UNL1        0.2526
     23 O         138.4849  142.8796  157.8552 O.3     1  UNL1       -0.4684
     24 O         139.6486  144.7578  159.8845 O.3     1  UNL1       -0.4684
     25 C         140.3080  145.6668  160.8789 C.3     1  UNL1        0.2526
@<TRIPOS>BOND
     1    22    23    1
     2    23     1    1
     3     1     2   ar
     4     2     3   ar
     5     3     4   ar
     6     4     5   ar
     7     5     6   ar
     8     6    24    1
     9    24    25    1
    10     4     7    1
    11     7     8    1
    12     8     9   am
    13     9    10    2
    14     9    11   am
    15    11    12    1
    16    12    13    1
    17    13    14    1
    18    14    19    1
    19    19    20    1
    20    19    21    1
    21    14    15    1
    22    15    16    1
    23     8    17    1
    24    17    18    1
    25     6     1   ar
    26    16    11    1
    27    18     3    1
@<TRIPOS>MOLECULE
*****
 25 27 0 0 0
SMALL
GASTEIGER

@<TRIPOS>ATOM
      1 C         139.8539  141.0425  169.2228 C.ar    1  UNL1        0.1721
      2 C         139.1925  139.8885  168.5295 C.ar    1  UNL1        0.0356
      3 C         139.1850  139.8181  167.0311 C.ar    1  UNL1       -0.0196
      4 C         139.8390  140.9018  166.2262 C.ar    1  UNL1       -0.0030
      5 C         140.5004  142.0558  166.9196 C.ar    1  UNL1        0.0371
      6 C         140.5079  142.1261  168.4179 C.ar    1  UNL1        0.1721
      7 C         139.8315  140.8315  164.7279 C.3     1  UNL1        0.1215
      8 N         139.1701  139.6775  164.0345 N.am    1  UNL1       -0.2596
      9 C         139.1626  139.6071  162.5361 C.2     1  UNL1        0.3075
     10 O         138.5011  138.4531  161.8428 O.2     1  UNL1       -0.2523
     11 N         139.8166  140.6908  161.7312 N.am    1  UNL1       -0.2612
     12 C         140.4781  141.8448  162.4246 C.3     1  UNL1        0.1123
     13 C         141.1320  142.9285  161.6196 C.3     1  UNL1        0.0939
     14 N         141.1246  142.8581  160.1212 N.3     1  UNL1       -0.2711
     15 C         140.4631  141.7042  159.4279 C.3     1  UNL1        0.0939
     16 C         139.8091  140.6205  160.2329 C.3     1  UNL1        0.1123
     17 C         138.5161  138.5938  164.8395 C.3     1  UNL1        0.0999
     18 C         138.5235  138.6641  166.3378 C.3     1  UNL1        0.0477
     19 C         141.7785  143.9418  159.3163 C.3     1  UNL1        0.0577
     20 C         141.2559  145.3462  159.3847 C.3     1  UNL1        0.0173
     21 C         142.9552  143.6212  158.4430 C.3     1  UNL1        0.0173
     22 C         141.1273  140.8406  171.4785 C.3     1  UNL1        0.2526
     23 O         139.8614  141.1128  170.7212 O.3     1  UNL1       -0.4684
     24 O         141.1694  143.2802  169.1113 O.3     1  UNL1       -0.4684
     25 C         140.3475  144.2414  169.9179 C.3     1  UNL1        0.2526
@<TRIPOS>BOND
     1    22    23    1
     2    23     1    1
     3     1     2   ar
     4     2     3   ar
     5     3     4   ar
     6     4     5   ar
     7     5     6   ar
     8     6    24    1
     9    24    25    1
    10     4     7    1
    11     7     8    1
    12     8     9   am
    13     9    10    2
    14     9    11   am
    15    11    12    1
    16    12    13    1
    17    13    14    1
    18    14    19    1
    19    19    20    1
    20    19    21    1
    21    14    15    1
    22    15    16    1
    23     8    17    1
    24    17    18    1
    25     6     1   ar
    26    16    11    1
    27    18     3    1
@<TRIPOS>MOLECULE
*****
 25 27 0 0 0
SMALL
GASTEIGER

@<TRIPOS>ATOM
      1 C         140.1637  141.1923  169.3025 C.ar    1  UNL1        0.1721
      2 C         139.2078  140.1924  168.7226 C.ar    1  UNL1        0.0356
      3 C         139.3024  139.8174  167.2732 C.ar    1  UNL1       -0.0196
      4 C         140.3530  140.4424  166.4039 C.ar    1  UNL1       -0.0030
      5 C         141.3089  141.4424  166.9840 C.ar    1  UNL1        0.0371
      6 C         141.2143  141.8173  168.4332 C.ar    1  UNL1        0.1721
      7 C         140.4477  140.0675  164.9547 C.3     1  UNL1        0.1215
      8 N         139.4918  139.0676  164.3747 N.am    1  UNL1       -0.2596
      9 C         139.5865  138.6926  162.9254 C.2     1  UNL1        0.3075
     10 O         138.6306  137.6927  162.3454 O.2     1  UNL1       -0.2523
     11 N         140.6370  139.3175  162.0561 N.am    1  UNL1       -0.2612
     12 C         141.5930  140.3175  162.6361 C.3     1  UNL1        0.1123
     13 C         142.6436  140.9425  161.7668 C.3     1  UNL1        0.0939
     14 N         142.7382  140.5675  160.3175 N.3     1  UNL1       -0.2711
     15 C         141.7823  139.5676  159.7375 C.3     1  UNL1        0.0939
     16 C         140.7317  138.9426  160.6068 C.3     1  UNL1        0.1123
     17 C         138.4412  138.4426  165.2440 C.3     1  UNL1        0.0999
     18 C         138.3465  138.8175  166.6933 C.3     1  UNL1        0.0477
     19 C         143.7888  141.1925  159.4482 C.3     1  UNL1        0.0577
     20 C         144.5037  142.4288  159.9069 C.3     1  UNL1        0.0173
     21 C         144.1245  140.5811  158.1202 C.3     1  UNL1        0.0173
     22 C         139.5607  142.9230  171.1442 C.3     1  UNL1        0.2526
     23 O         140.0690  141.5673  170.7519 O.3     1  UNL1       -0.4684
     24 O         142.1702  142.8173  169.0133 O.3     1  UNL1       -0.4684
     25 C         143.3917  142.3489  169.7471 C.3     1  UNL1        0.2526
@<TRIPOS>BOND
     1    22    23    1
     2    23     1    1
     3     1     2   ar
     4     2     3   ar
     5     3     4   ar
     6     4     5   ar
     7     5     6   ar
     8     6    24    1
     9    24    25    1
    10     4     7    1
    11     7     8    1
    12     8     9   am
    13     9    10    2
    14     9    11   am
    15    11    12    1
    16    12    13    1
    17    13    14    1
    18    14    19    1
    19    19    20    1
    20    19    21    1
    21    14    15    1
    22    15    16    1
    23     8    17    1
    24    17    18    1
    25     6     1   ar
    26    16    11    1
    27    18     3    1
@<TRIPOS>MOLECULE
*****
 25 27 0 0 0
SMALL
GASTEIGER

@<TRIPOS>ATOM
      1 C         141.0968  141.5189  167.4889 C.ar    1  UNL1        0.1721
      2 C         140.1778  142.6570  167.1575 C.ar    1  UNL1        0.0356
      3 C         140.1908  143.2556  165.7821 C.ar    1  UNL1       -0.0196
      4 C         141.1231  142.7160  164.7382 C.ar    1  UNL1       -0.0030
      5 C         142.0422  141.5778  165.0696 C.ar    1  UNL1        0.0371
      6 C         142.0291  140.9793  166.4449 C.ar    1  UNL1        0.1721
      7 C         141.1362  143.3145  163.3629 C.3     1  UNL1        0.1215
      8 N         140.2171  144.4527  163.0315 N.am    1  UNL1       -0.2596
      9 C         140.2302  145.0513  161.6561 C.2     1  UNL1        0.3075
     10 O         139.3111  146.1894  161.3247 O.2     1  UNL1       -0.2523
     11 N         141.1624  144.5117  160.6122 N.am    1  UNL1       -0.2612
     12 C         142.0815  143.3735  160.9436 C.3     1  UNL1        0.1123
     13 C         143.0138  142.8338  159.8997 C.3     1  UNL1        0.0939
     14 N         143.0269  143.4324  158.5243 N.3     1  UNL1       -0.2711
     15 C         142.1078  144.5706  158.1929 C.3     1  UNL1        0.0939
     16 C         141.1755  145.1102  159.2368 C.3     1  UNL1        0.1123
     17 C         139.2849  144.9923  164.0754 C.3     1  UNL1        0.0999
     18 C         139.2718  144.3938  165.4507 C.3     1  UNL1        0.0477
     19 C         143.9591  142.8928  157.4804 C.3     1  UNL1        0.0577
     20 C         145.3316  142.4284  157.8684 C.3     1  UNL1        0.0173
     21 C         143.5188  142.8176  156.0484 C.3     1  UNL1        0.0173
     22 C         139.8348  140.2776  169.3906 C.3     1  UNL1        0.2526
     23 O         141.0838  140.9203  168.8643 O.3     1  UNL1       -0.4684
     24 O         142.9482  139.8411  166.7764 O.3     1  UNL1       -0.4684
     25 C         143.2476  138.7940  165.7448 C.3     1  UNL1        0.2526
@<TRIPOS>BOND
     1    22    23    1
     2    23     1    1
     3     1     2   ar
     4     2     3   ar
     5     3     4   ar
     6     4     5   ar
     7     5     6   ar
     8     6    24    1
     9    24    25    1
    10     4     7    1
    11     7     8    1
    12     8     9   am
    13     9    10    2
    14     9    11   am
    15    11    12    1
    16    12    13    1
    17    13    14    1
    18    14    19    1
    19    19    20    1
    20    19    21    1
    21    14    15    1
    22    15    16    1
    23     8    17    1
    24    17    18    1
    25     6     1   ar
    26    16    11    1
    27    18     3    1
@<TRIPOS>MOLECULE
*****
 25 27 0 0 0
SMALL
GASTEIGER

@<TRIPOS>ATOM
      1 C         140.9121  140.2406  168.4131 C.ar    1  UNL1        0.1721
      2 C         142.1082  141.1054  168.1461 C.ar    1  UNL1        0.0356
      3 C         142.3151  141.6998  166.7844 C.ar    1  UNL1       -0.0196
      4 C         141.3258  141.4292  165.6898 C.ar    1  UNL1       -0.0030
      5 C         140.1296  140.5643  165.9569 C.ar    1  UNL1        0.0371
      6 C         139.9228  139.9701  167.3185 C.ar    1  UNL1        0.1721
      7 C         141.5326  142.0235  164.3282 C.3     1  UNL1        0.1215
      8 N         142.7287  142.8883  164.0612 N.am    1  UNL1       -0.2596
      9 C         142.9356  143.4826  162.6996 C.2     1  UNL1        0.3075
     10 O         144.1317  144.3475  162.4325 O.2     1  UNL1       -0.2523
     11 N         141.9463  143.2121  161.6050 N.am    1  UNL1       -0.2612
     12 C         140.7502  142.3472  161.8720 C.3     1  UNL1        0.1123
     13 C         139.7609  142.0766  160.7775 C.3     1  UNL1        0.0939
     14 N         139.9678  142.6710  159.4158 N.3     1  UNL1       -0.2711
     15 C         141.1639  143.5358  159.1488 C.3     1  UNL1        0.0939
     16 C         142.1532  143.8064  160.2434 C.3     1  UNL1        0.1123
     17 C         143.7180  143.1589  165.1558 C.3     1  UNL1        0.0999
     18 C         143.5112  142.5646  166.5174 C.3     1  UNL1        0.0477
     19 C         138.9785  142.4004  158.3212 C.3     1  UNL1        0.0577
     20 C         138.8647  143.3463  157.1625 C.3     1  UNL1        0.0173
     21 C         138.1031  141.1841  158.3853 C.3     1  UNL1        0.0173
     22 C         140.4006  140.5363  170.9432 C.3     1  UNL1        0.2526
     23 O         140.7052  139.6463  169.7748 O.3     1  UNL1       -0.4684
     24 O         138.7266  139.1052  167.5856 O.3     1  UNL1       -0.4684
     25 C         137.9064  138.5857  166.4422 C.3     1  UNL1        0.2526
@<TRIPOS>BOND
     1    22    23    1
     2    23     1    1
     3     1     2   ar
     4     2     3   ar
     5     3     4   ar
     6     4     5   ar
     7     5     6   ar
     8     6    24    1
     9    24    25    1
    10     4     7    1
    11     7     8    1
    12     8     9   am
    13     9    10    2
    14     9    11   am
    15    11    12    1
    16    12    13    1
    17    13    14    1
    18    14    19    1
    19    19    20    1
    20    19    21    1
    21    14    15    1
    22    15    16    1
    23     8    17    1
    24    17    18    1
    25     6     1   ar
    26    16    11    1
    27    18     3    1
@<TRIPOS>MOLECULE
*****
 25 27 0 0 0
SMALL
GASTEIGER

@<TRIPOS>ATOM
      1 C         142.2282  144.6184  157.9114 C.ar    1  UNL1        0.1721
      2 C         141.2623  145.4712  158.6794 C.ar    1  UNL1        0.0356
      3 C         140.9563  145.1528  160.1130 C.ar    1  UNL1       -0.0196
      4 C         141.6161  143.9816  160.7784 C.ar    1  UNL1       -0.0030
      5 C         142.5820  143.1288  160.0104 C.ar    1  UNL1        0.0371
      6 C         142.8880  143.4472  158.5769 C.ar    1  UNL1        0.1721
      7 C         141.3101  143.6631  162.2119 C.3     1  UNL1        0.1215
      8 N         140.3443  144.5159  162.9799 N.am    1  UNL1       -0.2596
      9 C         140.0382  144.1975  164.4135 C.2     1  UNL1        0.3075
     10 O         139.0724  145.0502  165.1815 O.2     1  UNL1       -0.2523
     11 N         140.6981  143.0263  165.0790 N.am    1  UNL1       -0.2612
     12 C         141.6640  142.1735  164.3109 C.3     1  UNL1        0.1123
     13 C         142.3239  141.0023  164.9764 C.3     1  UNL1        0.0939
     14 N         142.0179  140.6839  166.4099 N.3     1  UNL1       -0.2711
     15 C         141.0520  141.5367  167.1779 C.3     1  UNL1        0.0939
     16 C         140.3921  142.7078  166.5125 C.3     1  UNL1        0.1123
     17 C         139.6844  145.6871  162.3144 C.3     1  UNL1        0.0999
     18 C         139.9904  146.0055  160.8810 C.3     1  UNL1        0.0477
     19 C         142.6777  139.5127  167.0754 C.3     1  UNL1        0.0577
     20 C         143.4345  138.5116  166.2537 C.3     1  UNL1        0.0173
     21 C         142.5808  139.3425  168.5626 C.3     1  UNL1        0.0173
     22 C         141.9038  144.1325  155.3798 C.3     1  UNL1        0.2526
     23 O         142.5342  144.9369  156.4778 O.3     1  UNL1       -0.4684
     24 O         143.8539  142.5945  157.8088 O.3     1  UNL1       -0.4684
     25 C         145.3126  142.6128  158.1581 C.3     1  UNL1        0.2526
@<TRIPOS>BOND
     1    22    23    1
     2    23     1    1
     3     1     2   ar
     4     2     3   ar
     5     3     4   ar
     6     4     5   ar
     7     5     6   ar
     8     6    24    1
     9    24    25    1
    10     4     7    1
    11     7     8    1
    12     8     9   am
    13     9    10    2
    14     9    11   am
    15    11    12    1
    16    12    13    1
    17    13    14    1
    18    14    19    1
    19    19    20    1
    20    19    21    1
    21    14    15    1
    22    15    16    1
    23     8    17    1
    24    17    18    1
    25     6     1   ar
    26    16    11    1
    27    18     3    1
@<TRIPOS>MOLECULE
*****
 25 27 0 0 0
SMALL
GASTEIGER

@<TRIPOS>ATOM
      1 C         141.7211  143.8100  159.4233 C.ar    1  UNL1        0.1721
      2 C         142.7716  142.7515  159.5845 C.ar    1  UNL1        0.0356
      3 C         142.9446  142.0615  160.9052 C.ar    1  UNL1       -0.0196
      4 C         142.0670  142.4300  162.0645 C.ar    1  UNL1       -0.0030
      5 C         141.0165  143.4885  161.9033 C.ar    1  UNL1        0.0371
      6 C         140.8435  144.1785  160.5827 C.ar    1  UNL1        0.1721
      7 C         142.2400  141.7400  163.3851 C.3     1  UNL1        0.1215
      8 N         143.2905  140.6815  163.5463 N.am    1  UNL1       -0.2596
      9 C         143.4634  139.9915  164.8669 C.2     1  UNL1        0.3075
     10 O         144.5139  138.9330  165.0282 O.2     1  UNL1       -0.2523
     11 N         142.5859  140.3599  166.0263 N.am    1  UNL1       -0.2612
     12 C         141.5353  141.4185  165.8650 C.3     1  UNL1        0.1123
     13 C         140.6578  141.7870  167.0244 C.3     1  UNL1        0.0939
     14 N         140.8308  141.0969  168.3450 N.3     1  UNL1       -0.2711
     15 C         141.8812  140.0384  168.5062 C.3     1  UNL1        0.0939
     16 C         142.7588  139.6700  167.3469 C.3     1  UNL1        0.1123
     17 C         144.1680  140.3130  162.3870 C.3     1  UNL1        0.0999
     18 C         143.9951  141.0030  161.0664 C.3     1  UNL1        0.0477
     19 C         139.9532  141.4654  169.5044 C.3     1  UNL1        0.0577
     20 C         140.0979  142.8080  170.1576 C.3     1  UNL1        0.0173
     21 C         138.9309  140.4914  170.0105 C.3     1  UNL1        0.0173
     22 C         142.0618  145.8966  157.9133 C.3     1  UNL1        0.2526
     23 O         141.5481  144.5001  158.1027 O.3     1  UNL1       -0.4684
     24 O         139.7930  145.2370  160.4214 O.3     1  UNL1       -0.4684
     25 C         139.5151  146.1948  161.5419 C.3     1  UNL1        0.2526
@<TRIPOS>BOND
     1    22    23    1
     2    23     1    1
     3     1     2   ar
     4     2     3   ar
     5     3     4   ar
     6     4     5   ar
     7     5     6   ar
     8     6    24    1
     9    24    25    1
    10     4     7    1
    11     7     8    1
    12     8     9   am
    13     9    10    2
    14     9    11   am
    15    11    12    1
    16    12    13    1
    17    13    14    1
    18    14    19    1
    19    19    20    1
    20    19    21    1
    21    14    15    1
    22    15    16    1
    23     8    17    1
    24    17    18    1
    25     6     1   ar
    26    16    11    1
    27    18     3    1
@<TRIPOS>MOLECULE
*****
 25 27 0 0 0
SMALL
GASTEIGER

@<TRIPOS>ATOM
      1 C         141.8524  139.5497  159.8399 C.ar    1  UNL1        0.1721
      2 C         140.8070  138.5988  160.3427 C.ar    1  UNL1        0.0356
      3 C         140.3486  138.6739  161.7691 C.ar    1  UNL1       -0.0196
      4 C         140.9357  139.6999  162.6925 C.ar    1  UNL1       -0.0030
      5 C         141.9811  140.6508  162.1895 C.ar    1  UNL1        0.0371
      6 C         142.4394  140.5757  160.7633 C.ar    1  UNL1        0.1721
      7 C         140.4774  139.7750  164.1187 C.3     1  UNL1        0.1215
      8 N         139.4320  138.8241  164.6216 N.am    1  UNL1       -0.2596
      9 C         138.9736  138.8992  166.0479 C.2     1  UNL1        0.3075
     10 O         137.9282  137.9483  166.5508 O.2     1  UNL1       -0.2523
     11 N         139.5607  139.9252  166.9713 N.am    1  UNL1       -0.2612
     12 C         140.6061  140.8761  166.4684 C.3     1  UNL1        0.1123
     13 C         141.1932  141.9021  167.3918 C.3     1  UNL1        0.0939
     14 N         140.7349  141.9772  168.8181 N.3     1  UNL1       -0.2711
     15 C         139.6895  141.0263  169.3210 C.3     1  UNL1        0.0939
     16 C         139.1024  140.0003  168.3976 C.3     1  UNL1        0.1123
     17 C         138.8449  137.7981  163.6982 C.3     1  UNL1        0.0999
     18 C         139.3032  137.7230  162.2719 C.3     1  UNL1        0.0477
     19 C         141.3219  143.0032  169.7415 C.3     1  UNL1        0.0577
     20 C         140.5571  144.2548  170.0553 C.3     1  UNL1        0.0173
     21 C         142.6738  142.7775  170.3511 C.3     1  UNL1        0.0173
     22 C         141.8776  138.3302  157.5459 C.3     1  UNL1        0.2526
     23 O         142.3107  139.4746  158.4135 O.3     1  UNL1       -0.4684
     24 O         143.4849  141.5266  160.2603 O.3     1  UNL1       -0.4684
     25 C         144.3628  142.2583  161.2319 C.3     1  UNL1        0.2526
@<TRIPOS>BOND
     1    22    23    1
     2    23     1    1
     3     1     2   ar
     4     2     3   ar
     5     3     4   ar
     6     4     5   ar
     7     5     6   ar
     8     6    24    1
     9    24    25    1
    10     4     7    1
    11     7     8    1
    12     8     9   am
    13     9    10    2
    14     9    11   am
    15    11    12    1
    16    12    13    1
    17    13    14    1
    18    14    19    1
    19    19    20    1
    20    19    21    1
    21    14    15    1
    22    15    16    1
    23     8    17    1
    24    17    18    1
    25     6     1   ar
    26    16    11    1
    27    18     3    1
@<TRIPOS>MOLECULE
*****
 25 27 0 0 0
SMALL
GASTEIGER

@<TRIPOS>ATOM
      1 C         140.2354  140.8109  168.6694 C.ar    1  UNL1        0.1721
      2 C         141.4435  141.6561  168.3936 C.ar    1  UNL1        0.0356
      3 C         142.0502  141.6722  167.0218 C.ar    1  UNL1       -0.0196
      4 C         141.4487  140.8432  165.9259 C.ar    1  UNL1       -0.0030
      5 C         140.2406  139.9980  166.2018 C.ar    1  UNL1        0.0371
      6 C         139.6339  139.9818  167.5735 C.ar    1  UNL1        0.1721
      7 C         142.0554  140.8593  164.5542 C.3     1  UNL1        0.1215
      8 N         143.2635  141.7045  164.2783 N.am    1  UNL1       -0.2596
      9 C         143.8702  141.7207  162.9065 C.2     1  UNL1        0.3075
     10 O         145.0783  142.5658  162.6307 O.2     1  UNL1       -0.2523
     11 N         143.2688  140.8916  161.8107 N.am    1  UNL1       -0.2612
     12 C         142.0606  140.0464  162.0866 C.3     1  UNL1        0.1123
     13 C         141.4591  139.2174  160.9907 C.3     1  UNL1        0.0939
     14 N         142.0659  139.2335  159.6189 N.3     1  UNL1       -0.2711
     15 C         143.2740  140.0787  159.3431 C.3     1  UNL1        0.0939
     16 C         143.8754  140.9077  160.4389 C.3     1  UNL1        0.1123
     17 C         143.8649  142.5335  165.3742 C.3     1  UNL1        0.0999
     18 C         143.2583  142.5174  166.7459 C.3     1  UNL1        0.0477
     19 C         141.4644  138.4045  158.5230 C.3     1  UNL1        0.0577
     20 C         139.9800  138.4096  158.3073 C.3     1  UNL1        0.0173
     21 C         142.3473  137.5704  157.6429 C.3     1  UNL1        0.0173
     22 C         140.4331  140.3114  171.2114 C.3     1  UNL1        0.2526
     23 O         139.6286  140.7947  170.0412 O.3     1  UNL1       -0.4684
     24 O         138.4257  139.1366  167.8494 O.3     1  UNL1       -0.4684
     25 C         137.7396  138.4194  166.7248 C.3     1  UNL1        0.2526
@<TRIPOS>BOND
     1    22    23    1
     2    23     1    1
     3     1     2   ar
     4     2     3   ar
     5     3     4   ar
     6     4     5   ar
     7     5     6   ar
     8     6    24    1
     9    24    25    1
    10     4     7    1
    11     7     8    1
    12     8     9   am
    13     9    10    2
    14     9    11   am
    15    11    12    1
    16    12    13    1
    17    13    14    1
    18    14    19    1
    19    19    20    1
    20    19    21    1
    21    14    15    1
    22    15    16    1
    23     8    17    1
    24    17    18    1
    25     6     1   ar
    26    16    11    1
    27    18     3    1
