@<TRIPOS>MOLECULE
*****
 34 36 0 0 0
SMALL
GASTEIGER

@<TRIPOS>ATOM
      1 C         138.5848  141.7074  164.8903 C.3     1  UNL1        0.1688
      2 C         137.8862  141.7018  163.5629 C.3     1  UNL1        0.0609
      3 C         137.8765  142.9392  162.7152 C.3     1  UNL1        0.0758
      4 N         138.5654  144.1823  163.1948 N.3     1  UNL1       -0.2724
      5 C         139.2640  144.1880  164.5221 C.3     1  UNL1        0.0758
      6 C         139.2737  142.9506  165.3699 C.3     1  UNL1        0.0609
      7 O         138.5945  140.4700  165.7380 O.3     1  UNL1       -0.4776
      8 C         140.8150  140.1203  169.0087 C.ar    1  UNL1       -0.0191
      9 C         139.6465  140.4065  168.1127 C.ar    1  UNL1        0.0342
     10 C         139.7630  140.1838  166.6340 C.ar    1  UNL1        0.1555
     11 C         141.0481  139.6749  166.0511 C.ar    1  UNL1        0.1151
     12 N         141.1646  139.4522  164.5723 N.ar    1  UNL1       -0.2408
     13 C         142.4496  138.9433  163.9895 C.ar    1  UNL1        0.0989
     14 C         143.6181  138.6570  164.8854 C.ar    1  UNL1        0.0207
     15 C         143.5016  138.8797  166.3642 C.ar    1  UNL1        0.0032
     16 C         142.2166  139.3887  166.9470 C.ar    1  UNL1        0.0204
     17 C         142.1000  139.6114  168.4259 C.ar    1  UNL1       -0.0026
     18 C         140.6984  140.3430  170.4875 C.3     1  UNL1        0.0265
     19 C         141.1963  141.6209  171.0950 C.3     1  UNL1        0.0047
     20 C         140.4985  143.7598  169.7956 C.3     1  UNL1        0.0000
     21 C         141.5550  142.7805  170.2137 C.3     1  UNL1        0.0003
     22 C         138.5557  145.4197  162.3471 C.3     1  UNL1        0.0721
     23 C         139.8492  146.0210  161.8828 C.3     1  UNL1        0.0188
     24 C         140.4591  145.5786  160.5858 C.3     1  UNL1        0.0202
     25 C         141.6030  144.6084  160.5873 C.3     1  UNL1        0.0911
     26 N         142.6371  144.6698  161.6722 N.3     1  UNL1       -0.1833
     27 H         142.5585  145.5914  162.1021 H       1  UNL1        0.1484
     28 S         142.6136  143.6680  162.7883 S.O2    1  UNL1        0.0407
     29 O         142.5555  142.5532  161.7864 O.2     1  UNL1       -0.1575
     30 O         142.6717  144.7827  163.7902 O.2     1  UNL1       -0.1575
     31 C         142.5900  142.6661  163.9045 C.3     1  UNL1        0.1688
     32 C         143.7809  142.5179  164.8045 C.3     1  UNL1        0.0253
     33 C         143.6217  142.6632  166.2889 C.3     1  UNL1        0.0019
     34 C         145.1308  142.2244  164.2200 C.3     1  UNL1        0.0019
@<TRIPOS>BOND
     1    20    21    1
     2    21    19    1
     3    19    18    1
     4    18     8    1
     5     8     9   ar
     6     9    10   ar
     7    10     7    1
     8     7     1    1
     9     1     2    1
    10     2     3    1
    11     3     4    1
    12     4    22    1
    13    22    23    1
    14    23    24    1
    15    24    25    1
    16    25    26    1
    17    26    28    1
    18    28    29    2
    19    28    30    2
    20    28    31    1
    21    31    32    1
    22    32    33    1
    23    32    34    1
    24     4     5    1
    25     5     6    1
    26    10    11   ar
    27    11    12   ar
    28    12    13   ar
    29    13    14   ar
    30    14    15   ar
    31    15    16   ar
    32    16    17   ar
    33    17     8   ar
    34     6     1    1
    35    16    11   ar
    36    26    27    1
@<TRIPOS>MOLECULE
*****
 34 36 0 0 0
SMALL
GASTEIGER

@<TRIPOS>ATOM
      1 C         143.7404  140.4477  164.9675 C.3     1  UNL1        0.1688
      2 C         143.6032  141.9414  164.9625 C.3     1  UNL1        0.0609
      3 C         143.9322  142.7206  163.7238 C.3     1  UNL1        0.0758
      4 N         144.3984  142.0062  162.4900 N.3     1  UNL1       -0.2724
      5 C         144.5356  140.5125  162.4949 C.3     1  UNL1        0.0758
      6 C         144.2066  139.7332  163.7337 C.3     1  UNL1        0.0609
      7 O         143.4113  139.6684  166.2062 O.3     1  UNL1       -0.4776
      8 C         140.4193  140.3698  168.7173 C.ar    1  UNL1       -0.0191
      9 C         141.8034  140.3145  168.1420 C.ar    1  UNL1        0.0342
     10 C         142.0271  139.7237  166.7815 C.ar    1  UNL1        0.1555
     11 C         140.8666  139.1883  165.9963 C.ar    1  UNL1        0.1151
     12 N         141.0903  138.5975  164.6358 N.ar    1  UNL1       -0.2408
     13 C         139.9298  138.0621  163.8506 C.ar    1  UNL1        0.0989
     14 C         138.5457  138.1174  164.4260 C.ar    1  UNL1        0.0207
     15 C         138.3220  138.7081  165.7864 C.ar    1  UNL1        0.0032
     16 C         139.4824  139.2436  166.5716 C.ar    1  UNL1        0.0204
     17 C         139.2588  139.8344  167.9322 C.ar    1  UNL1       -0.0026
     18 C         140.1956  140.9606  170.0779 C.3     1  UNL1        0.0265
     19 C         139.8069  142.4028  170.2146 C.3     1  UNL1        0.0047
     20 C         142.2328  143.3328  170.2098 C.3     1  UNL1        0.0000
     21 C         140.7841  143.4808  169.8500 C.3     1  UNL1        0.0003
     22 C         144.7275  142.7854  161.2513 C.3     1  UNL1        0.0721
     23 C         143.6597  143.0655  160.2356 C.3     1  UNL1        0.0188
     24 C         142.2344  143.2323  160.6723 C.3     1  UNL1        0.0202
     25 C         141.5076  144.5129  160.3867 C.3     1  UNL1        0.0911
     26 N         141.2090  145.4707  161.5020 N.3     1  UNL1       -0.1833
     27 H         140.6956  146.2503  161.0910 H       1  UNL1        0.1484
     28 S         140.4205  145.0127  162.6929 S.O2    1  UNL1        0.0407
     29 O         139.2374  144.7506  161.8089 O.2     1  UNL1       -0.1575
     30 O         141.6035  145.2748  163.5770 O.2     1  UNL1       -0.1575
     31 C         139.6319  144.5548  163.8840 C.3     1  UNL1        0.1688
     32 C         139.9541  143.2437  164.5377 C.3     1  UNL1        0.0253
     33 C         140.1128  143.1674  166.0273 C.3     1  UNL1        0.0019
     34 C         140.1175  142.0090  163.7018 C.3     1  UNL1        0.0019
@<TRIPOS>BOND
     1    20    21    1
     2    21    19    1
     3    19    18    1
     4    18     8    1
     5     8     9   ar
     6     9    10   ar
     7    10     7    1
     8     7     1    1
     9     1     2    1
    10     2     3    1
    11     3     4    1
    12     4    22    1
    13    22    23    1
    14    23    24    1
    15    24    25    1
    16    25    26    1
    17    26    28    1
    18    28    29    2
    19    28    30    2
    20    28    31    1
    21    31    32    1
    22    32    33    1
    23    32    34    1
    24     4     5    1
    25     5     6    1
    26    10    11   ar
    27    11    12   ar
    28    12    13   ar
    29    13    14   ar
    30    14    15   ar
    31    15    16   ar
    32    16    17   ar
    33    17     8   ar
    34     6     1    1
    35    16    11   ar
    36    26    27    1
@<TRIPOS>MOLECULE
*****
 34 36 0 0 0
SMALL
GASTEIGER

@<TRIPOS>ATOM
      1 C         143.7209  139.9487  164.8504 C.3     1  UNL1        0.1688
      2 C         144.1958  141.3712  164.8196 C.3     1  UNL1        0.0609
      3 C         144.5680  142.0096  163.5143 C.3     1  UNL1        0.0758
      4 N         144.4654  141.2255  162.2397 N.3     1  UNL1       -0.2724
      5 C         143.9905  139.8030  162.2704 C.3     1  UNL1        0.0758
      6 C         143.6183  139.1646  163.5758 C.3     1  UNL1        0.0609
      7 O         143.3487  139.3103  166.1557 O.3     1  UNL1       -0.4776
      8 C         139.3900  139.4496  166.3977 C.ar    1  UNL1       -0.0191
      9 C         140.7703  139.2666  165.8399 C.ar    1  UNL1        0.0342
     10 C         141.9684  139.4933  166.7135 C.ar    1  UNL1        0.1555
     11 C         141.7862  139.9031  168.1449 C.ar    1  UNL1        0.1151
     12 N         142.9842  140.1298  169.0185 N.ar    1  UNL1       -0.2408
     13 C         142.8020  140.5396  170.4498 C.ar    1  UNL1        0.0989
     14 C         141.4216  140.7226  171.0076 C.ar    1  UNL1        0.0207
     15 C         140.2235  140.4959  170.1341 C.ar    1  UNL1        0.0032
     16 C         140.4058  140.0862  168.7027 C.ar    1  UNL1        0.0204
     17 C         139.2077  139.8594  167.8291 C.ar    1  UNL1       -0.0026
     18 C         138.1918  139.2229  165.5241 C.3     1  UNL1        0.0265
     19 C         138.2270  139.6331  164.0817 C.3     1  UNL1        0.0047
     20 C         137.7633  138.5281  161.7765 C.3     1  UNL1        0.0000
     21 C         138.5876  138.6310  163.0255 C.3     1  UNL1        0.0003
     22 C         144.8376  141.8639  160.9344 C.3     1  UNL1        0.0721
     23 C         143.9986  142.9755  160.3769 C.3     1  UNL1        0.0188
     24 C         142.5045  142.9206  160.4980 C.3     1  UNL1        0.0202
     25 C         141.6926  144.1715  160.3365 C.3     1  UNL1        0.0911
     26 N         141.7571  145.2473  161.3799 N.3     1  UNL1       -0.1833
     27 H         141.2189  146.0367  161.0225 H       1  UNL1        0.1484
     28 S         141.2583  144.9765  162.7683 S.O2    1  UNL1        0.0407
     29 O         139.8504  144.9285  162.2532 O.2     1  UNL1       -0.1575
     30 O         142.6663  145.0244  163.2834 O.2     1  UNL1       -0.1575
     31 C         140.7596  144.7055  164.1569 C.3     1  UNL1        0.1688
     32 C         140.6430  143.2936  164.6497 C.3     1  UNL1        0.0253
     33 C         140.3454  143.0260  166.0953 C.3     1  UNL1        0.0019
     34 C         140.8240  142.1493  163.6969 C.3     1  UNL1        0.0019
@<TRIPOS>BOND
     1    20    21    1
     2    21    19    1
     3    19    18    1
     4    18     8    1
     5     8     9   ar
     6     9    10   ar
     7    10     7    1
     8     7     1    1
     9     1     2    1
    10     2     3    1
    11     3     4    1
    12     4    22    1
    13    22    23    1
    14    23    24    1
    15    24    25    1
    16    25    26    1
    17    26    28    1
    18    28    29    2
    19    28    30    2
    20    28    31    1
    21    31    32    1
    22    32    33    1
    23    32    34    1
    24     4     5    1
    25     5     6    1
    26    10    11   ar
    27    11    12   ar
    28    12    13   ar
    29    13    14   ar
    30    14    15   ar
    31    15    16   ar
    32    16    17   ar
    33    17     8   ar
    34     6     1    1
    35    16    11   ar
    36    26    27    1
@<TRIPOS>MOLECULE
*****
 34 36 0 0 0
SMALL
GASTEIGER

@<TRIPOS>ATOM
      1 C         139.1862  139.1969  164.9478 C.3     1  UNL1        0.1688
      2 C         139.4706  138.1670  163.8950 C.3     1  UNL1        0.0609
      3 C         138.8733  138.3087  162.5264 C.3     1  UNL1        0.0758
      4 N         137.9915  139.4803  162.2105 N.3     1  UNL1       -0.2724
      5 C         137.7070  140.5102  163.2633 C.3     1  UNL1        0.0758
      6 C         138.3044  140.3686  164.6319 C.3     1  UNL1        0.0609
      7 O         139.7836  139.0553  166.3163 O.3     1  UNL1       -0.4776
      8 C         142.8960  141.5157  166.2225 C.ar    1  UNL1       -0.0191
      9 C         141.8226  140.5701  165.7711 C.ar    1  UNL1        0.0342
     10 C         140.8570  140.0008  166.7677 C.ar    1  UNL1        0.1555
     11 C         140.9647  140.3770  168.2159 C.ar    1  UNL1        0.1151
     12 N         139.9990  139.8077  169.2125 N.ar    1  UNL1       -0.2408
     13 C         140.1067  140.1839  170.6605 C.ar    1  UNL1        0.0989
     14 C         141.1801  141.1294  171.1119 C.ar    1  UNL1        0.0207
     15 C         142.1458  141.6988  170.1153 C.ar    1  UNL1        0.0032
     16 C         142.0381  141.3226  168.6672 C.ar    1  UNL1        0.0204
     17 C         143.0038  141.8919  167.6705 C.ar    1  UNL1       -0.0026
     18 C         143.8617  142.0850  165.2258 C.3     1  UNL1        0.0265
     19 C         144.3309  143.5033  165.3618 C.3     1  UNL1        0.0047
     20 C         143.8374  144.1817  162.9029 C.3     1  UNL1        0.0000
     21 C         143.9035  144.5341  164.3595 C.3     1  UNL1        0.0003
     22 C         137.3941  139.6220  160.8420 C.3     1  UNL1        0.0721
     23 C         138.2652  139.9910  159.6779 C.3     1  UNL1        0.0188
     24 C         138.4032  141.4278  159.2701 C.3     1  UNL1        0.0202
     25 C         138.4514  142.5027  160.3152 C.3     1  UNL1        0.0911
     26 N         139.7578  143.1528  160.6628 N.3     1  UNL1       -0.1833
     27 H         139.9293  143.8662  159.9543 H       1  UNL1        0.1484
     28 S         139.9341  143.8160  161.9966 S.O2    1  UNL1        0.0407
     29 O         140.5227  142.5512  162.5477 O.2     1  UNL1       -0.1575
     30 O         139.3455  145.0808  161.4455 O.2     1  UNL1       -0.1575
     31 C         140.1104  144.4792  163.3305 C.3     1  UNL1        0.1688
     32 C         139.2575  144.0648  164.4927 C.3     1  UNL1        0.0253
     33 C         137.7629  144.0690  164.3654 C.3     1  UNL1        0.0019
     34 C         139.8992  143.6460  165.7823 C.3     1  UNL1        0.0019
@<TRIPOS>BOND
     1    20    21    1
     2    21    19    1
     3    19    18    1
     4    18     8    1
     5     8     9   ar
     6     9    10   ar
     7    10     7    1
     8     7     1    1
     9     1     2    1
    10     2     3    1
    11     3     4    1
    12     4    22    1
    13    22    23    1
    14    23    24    1
    15    24    25    1
    16    25    26    1
    17    26    28    1
    18    28    29    2
    19    28    30    2
    20    28    31    1
    21    31    32    1
    22    32    33    1
    23    32    34    1
    24     4     5    1
    25     5     6    1
    26    10    11   ar
    27    11    12   ar
    28    12    13   ar
    29    13    14   ar
    30    14    15   ar
    31    15    16   ar
    32    16    17   ar
    33    17     8   ar
    34     6     1    1
    35    16    11   ar
    36    26    27    1
@<TRIPOS>MOLECULE
*****
 34 36 0 0 0
SMALL
GASTEIGER

@<TRIPOS>ATOM
      1 C         141.1609  138.4306  164.8999 C.3     1  UNL1        0.1688
      2 C         139.7826  138.9830  165.1125 C.3     1  UNL1        0.0609
      3 C         138.7593  138.8868  164.0201 C.3     1  UNL1        0.0758
      4 N         139.1142  138.2381  162.7150 N.3     1  UNL1       -0.2724
      5 C         140.4924  137.6857  162.5023 C.3     1  UNL1        0.0758
      6 C         141.5158  137.7819  163.5948 C.3     1  UNL1        0.0609
      7 O         142.1843  138.5268  165.9923 O.3     1  UNL1       -0.4776
      8 C         142.5640  141.5093  168.5827 C.ar    1  UNL1       -0.0191
      9 C         142.2096  140.1722  168.0028 C.ar    1  UNL1        0.0342
     10 C         142.5388  139.8640  166.5722 C.ar    1  UNL1        0.1555
     11 C         143.2226  140.8930  165.7215 C.ar    1  UNL1        0.1151
     12 N         143.5518  140.5848  164.2909 N.ar    1  UNL1       -0.2408
     13 C         144.2355  141.6138  163.4403 C.ar    1  UNL1        0.0989
     14 C         144.5900  142.9510  164.0202 C.ar    1  UNL1        0.0207
     15 C         144.2608  143.2592  165.4508 C.ar    1  UNL1        0.0032
     16 C         143.5771  142.2302  166.3014 C.ar    1  UNL1        0.0204
     17 C         143.2478  142.5383  167.7321 C.ar    1  UNL1       -0.0026
     18 C         142.2348  141.8175  170.0134 C.3     1  UNL1        0.0265
     19 C         141.1477  141.0570  170.7133 C.3     1  UNL1        0.0047
     20 C         138.8261  140.3277  169.8033 C.3     1  UNL1        0.0000
     21 C         139.7091  141.3687  170.4250 C.3     1  UNL1        0.0003
     22 C         138.0908  138.1418  161.6226 C.3     1  UNL1        0.0721
     23 C         137.9766  139.2365  160.6033 C.3     1  UNL1        0.0188
     24 C         137.3841  140.5599  160.9873 C.3     1  UNL1        0.0202
     25 C         138.2809  141.7225  161.2937 C.3     1  UNL1        0.0911
     26 N         137.6893  143.0382  161.7048 N.3     1  UNL1       -0.1833
     27 H         136.6790  142.9053  161.7508 H       1  UNL1        0.1484
     28 S         138.1017  143.6743  162.9991 S.O2    1  UNL1        0.0407
     29 O         138.2376  144.9973  162.3056 O.2     1  UNL1       -0.1575
     30 O         137.9657  142.3512  163.6926 O.2     1  UNL1       -0.1575
     31 C         138.5141  144.3103  164.2935 C.3     1  UNL1        0.1688
     32 C         139.8593  144.0063  164.8835 C.3     1  UNL1        0.0253
     33 C         141.1060  144.4434  164.1731 C.3     1  UNL1        0.0019
     34 C         139.9578  143.2651  166.1839 C.3     1  UNL1        0.0019
@<TRIPOS>BOND
     1    20    21    1
     2    21    19    1
     3    19    18    1
     4    18     8    1
     5     8     9   ar
     6     9    10   ar
     7    10     7    1
     8     7     1    1
     9     1     2    1
    10     2     3    1
    11     3     4    1
    12     4    22    1
    13    22    23    1
    14    23    24    1
    15    24    25    1
    16    25    26    1
    17    26    28    1
    18    28    29    2
    19    28    30    2
    20    28    31    1
    21    31    32    1
    22    32    33    1
    23    32    34    1
    24     4     5    1
    25     5     6    1
    26    10    11   ar
    27    11    12   ar
    28    12    13   ar
    29    13    14   ar
    30    14    15   ar
    31    15    16   ar
    32    16    17   ar
    33    17     8   ar
    34     6     1    1
    35    16    11   ar
    36    26    27    1
@<TRIPOS>MOLECULE
*****
 34 36 0 0 0
SMALL
GASTEIGER

@<TRIPOS>ATOM
      1 C         139.3811  143.1592  164.9214 C.3     1  UNL1        0.1688
      2 C         140.6882  143.8772  164.7598 C.3     1  UNL1        0.0609
      3 C         140.8528  144.9005  163.6756 C.3     1  UNL1        0.0758
      4 N         139.7103  145.2058  162.7528 N.3     1  UNL1       -0.2724
      5 C         138.4033  144.4879  162.9143 C.3     1  UNL1        0.0758
      6 C         138.2386  143.4646  163.9986 C.3     1  UNL1        0.0609
      7 O         139.2165  142.1359  166.0057 O.3     1  UNL1       -0.4776
      8 C         141.9458  139.2549  166.0049 C.ar    1  UNL1       -0.0191
      9 C         140.7800  140.1029  165.5907 C.ar    1  UNL1        0.0342
     10 C         140.3823  141.2879  166.4199 C.ar    1  UNL1        0.1555
     11 C         141.1506  141.6249  167.6635 C.ar    1  UNL1        0.1151
     12 N         140.7529  142.8098  168.4927 N.ar    1  UNL1       -0.2408
     13 C         141.5212  143.1467  169.7362 C.ar    1  UNL1        0.0989
     14 C         142.6870  142.2987  170.1504 C.ar    1  UNL1        0.0207
     15 C         143.0847  141.1137  169.3211 C.ar    1  UNL1        0.0032
     16 C         142.3165  140.7768  168.0777 C.ar    1  UNL1        0.0204
     17 C         142.7141  139.5918  167.2483 C.ar    1  UNL1       -0.0026
     18 C         142.3435  138.0699  165.1756 C.3     1  UNL1        0.0265
     19 C         141.2918  137.1521  164.6261 C.3     1  UNL1        0.0047
     20 C         139.4104  137.7491  162.9368 C.3     1  UNL1        0.0000
     21 C         140.8195  137.3143  163.2118 C.3     1  UNL1        0.0003
     22 C         139.8750  146.2291  161.6685 C.3     1  UNL1        0.0721
     23 C         140.0956  145.7910  160.2509 C.3     1  UNL1        0.0188
     24 C         140.5585  144.3940  159.9611 C.3     1  UNL1        0.0202
     25 C         141.9447  143.9685  160.3449 C.3     1  UNL1        0.0911
     26 N         142.1547  142.6896  161.1002 N.3     1  UNL1       -0.1833
     27 H         142.0906  141.9321  160.4202 H       1  UNL1        0.1484
     28 S         143.4231  142.4735  161.8711 S.O2    1  UNL1        0.0407
     29 O         143.7964  143.9109  161.6600 O.2     1  UNL1       -0.1575
     30 O         143.0499  141.0361  162.0822 O.2     1  UNL1       -0.1575
     31 C         144.6917  142.2573  162.6420 C.3     1  UNL1        0.1688
     32 C         144.6420  141.6506  164.0129 C.3     1  UNL1        0.0253
     33 C         144.0410  142.4194  165.1520 C.3     1  UNL1        0.0019
     34 C         145.1933  140.2749  164.2447 C.3     1  UNL1        0.0019
@<TRIPOS>BOND
     1    20    21    1
     2    21    19    1
     3    19    18    1
     4    18     8    1
     5     8     9   ar
     6     9    10   ar
     7    10     7    1
     8     7     1    1
     9     1     2    1
    10     2     3    1
    11     3     4    1
    12     4    22    1
    13    22    23    1
    14    23    24    1
    15    24    25    1
    16    25    26    1
    17    26    28    1
    18    28    29    2
    19    28    30    2
    20    28    31    1
    21    31    32    1
    22    32    33    1
    23    32    34    1
    24     4     5    1
    25     5     6    1
    26    10    11   ar
    27    11    12   ar
    28    12    13   ar
    29    13    14   ar
    30    14    15   ar
    31    15    16   ar
    32    16    17   ar
    33    17     8   ar
    34     6     1    1
    35    16    11   ar
    36    26    27    1
@<TRIPOS>MOLECULE
*****
 34 36 0 0 0
SMALL
GASTEIGER

@<TRIPOS>ATOM
      1 C         139.2675  142.8392  164.5035 C.3     1  UNL1        0.1688
      2 C         140.3021  143.9058  164.7086 C.3     1  UNL1        0.0609
      3 C         140.5251  144.9474  163.6525 C.3     1  UNL1        0.0758
      4 N         139.7135  144.9223  162.3912 N.3     1  UNL1       -0.2724
      5 C         138.6790  143.8557  162.1860 C.3     1  UNL1        0.0758
      6 C         138.4560  142.8141  163.2422 C.3     1  UNL1        0.0609
      7 O         139.0445  141.7976  165.5596 O.3     1  UNL1       -0.4776
      8 C         142.1051  140.4333  167.6860 C.ar    1  UNL1       -0.0191
      9 C         140.9668  141.2999  167.2350 C.ar    1  UNL1        0.0342
     10 C         140.1828  140.9311  166.0106 C.ar    1  UNL1        0.1555
     11 C         140.5372  139.6957  165.2370 C.ar    1  UNL1        0.1151
     12 N         139.7532  139.3269  164.0125 N.ar    1  UNL1       -0.2408
     13 C         140.1075  138.0915  163.2391 C.ar    1  UNL1        0.0989
     14 C         141.2458  137.2250  163.6900 C.ar    1  UNL1        0.0207
     15 C         142.0298  137.5938  164.9145 C.ar    1  UNL1        0.0032
     16 C         141.6755  138.8291  165.6880 C.ar    1  UNL1        0.0204
     17 C         142.4594  139.1980  166.9125 C.ar    1  UNL1       -0.0026
     18 C         142.8891  140.8022  168.9105 C.3     1  UNL1        0.0265
     19 C         143.2605  142.2339  169.1602 C.3     1  UNL1        0.0047
     20 C         141.1928  143.5567  170.0116 C.3     1  UNL1        0.0000
     21 C         142.5704  143.0100  170.2425 C.3     1  UNL1        0.0003
     22 C         139.9365  145.9638  161.3351 C.3     1  UNL1        0.0721
     23 C         140.1549  145.5516  159.9094 C.3     1  UNL1        0.0188
     24 C         141.5156  145.1130  159.4556 C.3     1  UNL1        0.0202
     25 C         142.0703  143.7963  159.9124 C.3     1  UNL1        0.0911
     26 N         142.9993  143.7415  161.0888 N.3     1  UNL1       -0.1833
     27 H         142.6161  144.3684  161.7962 H       1  UNL1        0.1484
     28 S         143.2697  142.4330  161.7706 S.O2    1  UNL1        0.0407
     29 O         141.7944  142.2032  161.9144 O.2     1  UNL1       -0.1575
     30 O         144.7449  142.6629  161.6269 O.2     1  UNL1       -0.1575
     31 C         143.5400  141.1245  162.4525 C.3     1  UNL1        0.1688
     32 C         144.0743  141.1055  163.8540 C.3     1  UNL1        0.0253
     33 C         145.0162  140.0198  164.2829 C.3     1  UNL1        0.0019
     34 C         143.6665  142.1722  164.8266 C.3     1  UNL1        0.0019
@<TRIPOS>BOND
     1    20    21    1
     2    21    19    1
     3    19    18    1
     4    18     8    1
     5     8     9   ar
     6     9    10   ar
     7    10     7    1
     8     7     1    1
     9     1     2    1
    10     2     3    1
    11     3     4    1
    12     4    22    1
    13    22    23    1
    14    23    24    1
    15    24    25    1
    16    25    26    1
    17    26    28    1
    18    28    29    2
    19    28    30    2
    20    28    31    1
    21    31    32    1
    22    32    33    1
    23    32    34    1
    24     4     5    1
    25     5     6    1
    26    10    11   ar
    27    11    12   ar
    28    12    13   ar
    29    13    14   ar
    30    14    15   ar
    31    15    16   ar
    32    16    17   ar
    33    17     8   ar
    34     6     1    1
    35    16    11   ar
    36    26    27    1
@<TRIPOS>MOLECULE
*****
 34 36 0 0 0
SMALL
GASTEIGER

@<TRIPOS>ATOM
      1 C         139.4626  138.3342  161.6012 C.3     1  UNL1        0.1688
      2 C         138.1061  138.9657  161.7070 C.3     1  UNL1        0.0609
      3 C         137.5468  139.7396  160.5502 C.3     1  UNL1        0.0758
      4 N         138.3440  139.8820  159.2876 N.3     1  UNL1       -0.2724
      5 C         139.7004  139.2505  159.1818 C.3     1  UNL1        0.0758
      6 C         140.2597  138.4766  160.3386 C.3     1  UNL1        0.0609
      7 O         140.0218  137.5602  162.7581 O.3     1  UNL1       -0.4776
      8 C         143.0444  139.2448  164.7013 C.ar    1  UNL1       -0.0191
      9 C         142.2644  138.5377  163.6328 C.ar    1  UNL1        0.0342
     10 C         140.8018  138.2673  163.8265 C.ar    1  UNL1        0.1555
     11 C         140.1191  138.7041  165.0888 C.ar    1  UNL1        0.1151
     12 N         138.6564  138.4338  165.2825 N.ar    1  UNL1       -0.2408
     13 C         137.9738  138.8706  166.5447 C.ar    1  UNL1        0.0989
     14 C         138.7538  139.5777  167.6131 C.ar    1  UNL1        0.0207
     15 C         140.2164  139.8480  167.4194 C.ar    1  UNL1        0.0032
     16 C         140.8991  139.4112  166.1572 C.ar    1  UNL1        0.0204
     17 C         142.3618  139.6815  165.9635 C.ar    1  UNL1       -0.0026
     18 C         144.5071  139.5151  164.5075 C.3     1  UNL1        0.0265
     19 C         144.9748  140.2883  163.3102 C.3     1  UNL1        0.0047
     20 C         144.7652  142.5125  164.6363 C.3     1  UNL1        0.0000
     21 C         145.2235  141.7634  163.4203 C.3     1  UNL1        0.0003
     22 C         137.7847  140.6559  158.1308 C.3     1  UNL1        0.0721
     23 C         137.9051  142.1508  158.1002 C.3     1  UNL1        0.0188
     24 C         139.2599  142.7936  158.0646 C.3     1  UNL1        0.0202
     25 C         139.8826  143.3011  159.3313 C.3     1  UNL1        0.0911
     26 N         139.5346  142.6662  160.6450 N.3     1  UNL1       -0.1833
     27 H         140.3783  142.2011  160.9799 H       1  UNL1        0.1484
     28 S         139.0282  143.5116  161.7758 S.O2    1  UNL1        0.0407
     29 O         140.4243  143.9908  162.0428 O.2     1  UNL1       -0.1575
     30 O         137.6321  143.0324  161.5088 O.2     1  UNL1       -0.1575
     31 C         138.5217  144.3570  162.9067 C.3     1  UNL1        0.1688
     32 C         138.6581  143.8772  164.3213 C.3     1  UNL1        0.0253
     33 C         138.8477  142.4161  164.6027 C.3     1  UNL1        0.0019
     34 C         138.6050  144.8586  165.4545 C.3     1  UNL1        0.0019
@<TRIPOS>BOND
     1    20    21    1
     2    21    19    1
     3    19    18    1
     4    18     8    1
     5     8     9   ar
     6     9    10   ar
     7    10     7    1
     8     7     1    1
     9     1     2    1
    10     2     3    1
    11     3     4    1
    12     4    22    1
    13    22    23    1
    14    23    24    1
    15    24    25    1
    16    25    26    1
    17    26    28    1
    18    28    29    2
    19    28    30    2
    20    28    31    1
    21    31    32    1
    22    32    33    1
    23    32    34    1
    24     4     5    1
    25     5     6    1
    26    10    11   ar
    27    11    12   ar
    28    12    13   ar
    29    13    14   ar
    30    14    15   ar
    31    15    16   ar
    32    16    17   ar
    33    17     8   ar
    34     6     1    1
    35    16    11   ar
    36    26    27    1
@<TRIPOS>MOLECULE
*****
 34 36 0 0 0
SMALL
GASTEIGER

@<TRIPOS>ATOM
      1 C         143.5867  143.1962  162.8858 C.3     1  UNL1        0.1688
      2 C         143.9314  142.7935  161.4825 C.3     1  UNL1        0.0609
      3 C         143.1571  143.3581  160.3286 C.3     1  UNL1        0.0758
      4 N         142.0380  144.3254  160.5779 N.3     1  UNL1       -0.2724
      5 C         141.6933  144.7281  161.9811 C.3     1  UNL1        0.0758
      6 C         142.4677  144.1634  163.1351 C.3     1  UNL1        0.0609
      7 O         144.3611  142.6315  164.0397 O.3     1  UNL1       -0.4776
      8 C         142.7657  141.7611  167.5678 C.ar    1  UNL1       -0.0191
      9 C         143.4787  142.5088  166.4802 C.ar    1  UNL1        0.0342
     10 C         143.6482  141.8839  165.1272 C.ar    1  UNL1        0.1555
     11 C         143.1047  140.5111  164.8617 C.ar    1  UNL1        0.1151
     12 N         143.2742  139.8862  163.5087 N.ar    1  UNL1       -0.2408
     13 C         142.7308  138.5136  163.2432 C.ar    1  UNL1        0.0989
     14 C         142.0179  137.7659  164.3307 C.ar    1  UNL1        0.0207
     15 C         141.8484  138.3908  165.6837 C.ar    1  UNL1        0.0032
     16 C         142.3918  139.7635  165.9492 C.ar    1  UNL1        0.0204
     17 C         142.2223  140.3885  167.3023 C.ar    1  UNL1       -0.0026
     18 C         142.5963  142.3861  168.9208 C.3     1  UNL1        0.0265
     19 C         141.3161  143.0865  169.2684 C.3     1  UNL1        0.0047
     20 C         140.3454  140.9980  170.4708 C.3     1  UNL1        0.0000
     21 C         140.1354  142.2961  169.7491 C.3     1  UNL1        0.0003
     22 C         141.2637  144.8900  159.4240 C.3     1  UNL1        0.0721
     23 C         139.8624  144.4236  159.1611 C.3     1  UNL1        0.0188
     24 C         139.5277  142.9645  159.2548 C.3     1  UNL1        0.0202
     25 C         138.7596  142.4454  160.4340 C.3     1  UNL1        0.0911
     26 N         137.9576  143.3887  161.2809 N.3     1  UNL1       -0.1833
     27 H         137.0045  143.3726  160.9178 H       1  UNL1        0.1484
     28 S         137.8607  143.1696  162.7616 S.O2    1  UNL1        0.0407
     29 O         137.2053  141.8418  162.5222 O.2     1  UNL1       -0.1575
     30 O         138.5160  144.4975  163.0010 O.2     1  UNL1       -0.1575
     31 C         137.7637  142.9506  164.2424 C.3     1  UNL1        0.1688
     32 C         138.9113  142.3339  164.9860 C.3     1  UNL1        0.0253
     33 C         139.0936  140.8451  164.9829 C.3     1  UNL1        0.0019
     34 C         139.8765  143.2062  165.7327 C.3     1  UNL1        0.0019
@<TRIPOS>BOND
     1    20    21    1
     2    21    19    1
     3    19    18    1
     4    18     8    1
     5     8     9   ar
     6     9    10   ar
     7    10     7    1
     8     7     1    1
     9     1     2    1
    10     2     3    1
    11     3     4    1
    12     4    22    1
    13    22    23    1
    14    23    24    1
    15    24    25    1
    16    25    26    1
    17    26    28    1
    18    28    29    2
    19    28    30    2
    20    28    31    1
    21    31    32    1
    22    32    33    1
    23    32    34    1
    24     4     5    1
    25     5     6    1
    26    10    11   ar
    27    11    12   ar
    28    12    13   ar
    29    13    14   ar
    30    14    15   ar
    31    15    16   ar
    32    16    17   ar
    33    17     8   ar
    34     6     1    1
    35    16    11   ar
    36    26    27    1
