@<TRIPOS>MOLECULE
*****
 26 29 0 0 0
SMALL
GASTEIGER

@<TRIPOS>ATOM
      1 C         140.4060  141.4544  165.2949 C.3     1  UNL1        0.0991
      2 C         138.4784  137.4079  165.6953 C.ar    1  UNL1       -0.0000
      3 C         139.5211  137.6411  164.6426 C.ar    1  UNL1       -0.0003
      4 C         140.1636  138.9899  164.5091 C.ar    1  UNL1       -0.0029
      5 C         139.7634  140.1056  165.4284 C.ar    1  UNL1       -0.0061
      6 C         138.7208  139.8724  166.4812 C.ar    1  UNL1       -0.0029
      7 C         138.0782  138.5235  166.6146 C.ar    1  UNL1       -0.0003
      8 N         139.7361  142.5278  164.4893 N.3     1  UNL1       -0.2690
      9 C         140.3086  143.9140  164.4638 C.3     1  UNL1        0.0724
     10 C         139.6387  144.9875  163.6582 C.3     1  UNL1        0.0174
     11 C         138.3964  144.6746  162.8780 C.3     1  UNL1        0.0029
     12 C         137.8239  143.2884  162.9034 C.3     1  UNL1        0.0174
     13 C         138.4937  142.2150  163.7090 C.3     1  UNL1        0.0724
     14 C         141.7183  141.7298  165.9670 C.3     1  UNL1        0.0991
     15 C         141.7468  142.2185  167.3849 C.ar    1  UNL1       -0.0061
     16 C         140.5165  142.8219  167.9951 C.ar    1  UNL1       -0.0029
     17 C         140.5449  143.3105  169.4130 C.ar    1  UNL1       -0.0003
     18 C         141.8038  143.1958  170.2207 C.ar    1  UNL1       -0.0000
     19 C         143.0340  142.5924  169.6105 C.ar    1  UNL1       -0.0003
     20 C         143.0055  142.1038  168.1926 C.ar    1  UNL1       -0.0029
     21 N         143.0023  141.5166  165.2213 N.3     1  UNL1       -0.2690
     22 C         143.7343  142.6887  164.6379 C.3     1  UNL1        0.0724
     23 C         145.0182  142.4755  163.8922 C.3     1  UNL1        0.0174
     24 C         145.5701  141.0902  163.7298 C.3     1  UNL1        0.0029
     25 C         144.8381  139.9181  164.3132 C.3     1  UNL1        0.0174
     26 C         143.5541  140.1313  165.0590 C.3     1  UNL1        0.0724
@<TRIPOS>BOND
     1     2     3   ar
     2     3     4   ar
     3     4     5   ar
     4     5     1    1
     5     1    14    1
     6    14    15    1
     7    15    16   ar
     8    16    17   ar
     9    17    18   ar
    10    18    19   ar
    11    19    20   ar
    12    14    21    1
    13    21    22    1
    14    22    23    1
    15    23    24    1
    16    24    25    1
    17    25    26    1
    18     1     8    1
    19     8     9    1
    20     9    10    1
    21    10    11    1
    22    11    12    1
    23    12    13    1
    24     5     6   ar
    25     6     7   ar
    26     7     2   ar
    27    20    15   ar
    28    26    21    1
    29    13     8    1
@<TRIPOS>MOLECULE
*****
 26 29 0 0 0
SMALL
GASTEIGER

@<TRIPOS>ATOM
      1 C         141.7154  141.7227  165.9689 C.3     1  UNL1        0.0991
      2 C         141.8063  143.1951  170.2203 C.ar    1  UNL1       -0.0000
      3 C         140.5465  143.3085  169.4141 C.ar    1  UNL1       -0.0003
      4 C         140.5162  142.8177  167.9969 C.ar    1  UNL1       -0.0029
      5 C         141.7457  142.2135  167.3860 C.ar    1  UNL1       -0.0061
      6 C         143.0055  142.1001  168.1923 C.ar    1  UNL1       -0.0029
      7 C         143.0358  142.5909  169.6094 C.ar    1  UNL1       -0.0003
      8 N         142.9984  141.5066  165.2225 N.3     1  UNL1       -0.2690
      9 C         143.7318  142.6768  164.6370 C.3     1  UNL1        0.0724
     10 C         145.0148  142.4606  163.8905 C.3     1  UNL1        0.0174
     11 C         145.5644  141.0743  163.7296 C.3     1  UNL1        0.0029
     12 C         144.8311  139.9041  164.3151 C.3     1  UNL1        0.0174
     13 C         143.5481  140.1202  165.0615 C.3     1  UNL1        0.0724
     14 C         140.4022  141.4481  165.2982 C.3     1  UNL1        0.0991
     15 C         139.7582  140.1001  165.4338 C.ar    1  UNL1       -0.0061
     16 C         140.1600  138.9815  164.5187 C.ar    1  UNL1       -0.0029
     17 C         139.5161  137.6336  164.6542 C.ar    1  UNL1       -0.0003
     18 C         138.4703  137.4043  165.7049 C.ar    1  UNL1       -0.0000
     19 C         138.0685  138.5228  166.6199 C.ar    1  UNL1       -0.0003
     20 C         138.7125  139.8708  166.4844 C.ar    1  UNL1       -0.0029
     21 N         139.7328  142.5214  164.4919 N.3     1  UNL1       -0.2690
     22 C         140.3008  143.9096  164.4731 C.3     1  UNL1        0.0724
     23 C         139.6315  144.9829  163.6669 C.3     1  UNL1        0.0174
     24 C         138.3941  144.6680  162.8794 C.3     1  UNL1        0.0029
     25 C         137.8262  143.2798  162.8983 C.3     1  UNL1        0.0174
     26 C         138.4956  142.2065  163.7046 C.3     1  UNL1        0.0724
@<TRIPOS>BOND
     1     2     3   ar
     2     3     4   ar
     3     4     5   ar
     4     5     1    1
     5     1    14    1
     6    14    15    1
     7    15    16   ar
     8    16    17   ar
     9    17    18   ar
    10    18    19   ar
    11    19    20   ar
    12    14    21    1
    13    21    22    1
    14    22    23    1
    15    23    24    1
    16    24    25    1
    17    25    26    1
    18     1     8    1
    19     8     9    1
    20     9    10    1
    21    10    11    1
    22    11    12    1
    23    12    13    1
    24     5     6   ar
    25     6     7   ar
    26     7     2   ar
    27    20    15   ar
    28    26    21    1
    29    13     8    1
@<TRIPOS>MOLECULE
*****
 26 29 0 0 0
SMALL
GASTEIGER

@<TRIPOS>ATOM
      1 C         141.7125  141.7185  165.9771 C.3     1  UNL1        0.0991
      2 C         141.8066  143.2000  170.2252 C.ar    1  UNL1       -0.0000
      3 C         143.0341  142.5897  169.6164 C.ar    1  UNL1       -0.0003
      4 C         143.0028  142.0959  168.2004 C.ar    1  UNL1       -0.0029
      5 C         141.7439  142.2124  167.3932 C.ar    1  UNL1       -0.0061
      6 C         140.5164  142.8227  168.0020 C.ar    1  UNL1       -0.0029
      7 C         140.5478  143.3165  169.4180 C.ar    1  UNL1       -0.0003
      8 N         142.9951  141.4961  165.2318 N.3     1  UNL1       -0.2690
      9 C         143.5371  140.1069  165.0697 C.3     1  UNL1        0.0724
     10 C         144.8197  139.8845  164.3244 C.3     1  UNL1        0.0174
     11 C         145.5602  141.0513  163.7411 C.3     1  UNL1        0.0029
     12 C         145.0182  142.4405  163.9032 C.3     1  UNL1        0.0174
     13 C         143.7357  142.6629  164.6486 C.3     1  UNL1        0.0724
     14 C         140.3986  141.4472  165.3064 C.3     1  UNL1        0.0991
     15 C         139.7524  140.1001  165.4400 C.ar    1  UNL1       -0.0061
     16 C         140.1432  138.9858  164.5149 C.ar    1  UNL1       -0.0029
     17 C         139.4970  137.6387  164.6485 C.ar    1  UNL1       -0.0003
     18 C         138.4601  137.4059  165.7072 C.ar    1  UNL1       -0.0000
     19 C         138.0694  138.5202  166.6321 C.ar    1  UNL1       -0.0003
     20 C         138.7155  139.8673  166.4986 C.ar    1  UNL1       -0.0029
     21 N         139.7308  142.5229  164.5021 N.3     1  UNL1       -0.2690
     22 C         138.4782  142.2177  163.7353 C.3     1  UNL1        0.0724
     23 C         137.8104  143.2934  162.9310 C.3     1  UNL1        0.0174
     24 C         138.3951  144.6742  162.8934 C.3     1  UNL1        0.0029
     25 C         139.6477  144.9794  163.6601 C.3     1  UNL1        0.0174
     26 C         140.3156  143.9037  164.4645 C.3     1  UNL1        0.0724
@<TRIPOS>BOND
     1     2     3   ar
     2     3     4   ar
     3     4     5   ar
     4     5     1    1
     5     1    14    1
     6    14    15    1
     7    15    16   ar
     8    16    17   ar
     9    17    18   ar
    10    18    19   ar
    11    19    20   ar
    12    14    21    1
    13    21    22    1
    14    22    23    1
    15    23    24    1
    16    24    25    1
    17    25    26    1
    18     1     8    1
    19     8     9    1
    20     9    10    1
    21    10    11    1
    22    11    12    1
    23    12    13    1
    24     5     6   ar
    25     6     7   ar
    26     7     2   ar
    27    20    15   ar
    28    26    21    1
    29    13     8    1
@<TRIPOS>MOLECULE
*****
 26 29 0 0 0
SMALL
GASTEIGER

@<TRIPOS>ATOM
      1 C         140.4069  141.4616  165.3050 C.3     1  UNL1        0.0991
      2 C         138.3858  144.7038  162.9274 C.ar    1  UNL1       -0.0000
      3 C         137.7911  143.3277  162.9758 C.ar    1  UNL1       -0.0003
      4 C         138.4648  142.2469  163.7683 C.ar    1  UNL1       -0.0029
      5 C         139.7332  142.5423  164.5125 C.ar    1  UNL1       -0.0061
      6 C         140.3279  143.9185  164.4641 C.ar    1  UNL1       -0.0029
      7 C         139.6542  144.9993  163.6716 C.ar    1  UNL1       -0.0003
      8 N         139.7672  140.1102  165.4254 N.3     1  UNL1       -0.2690
      9 C         140.1536  139.0107  164.4810 C.3     1  UNL1        0.0724
     10 C         139.5139  137.6592  164.6015 C.3     1  UNL1        0.0174
     11 C         138.4878  137.4073  165.6662 C.3     1  UNL1        0.0029
     12 C         138.1014  138.5068  166.6106 C.3     1  UNL1        0.0174
     13 C         138.7411  139.8582  166.4902 C.3     1  UNL1        0.0724
     14 C         141.7202  141.7322  165.9772 C.3     1  UNL1        0.0991
     15 C         141.7505  142.2212  167.3949 C.ar    1  UNL1       -0.0061
     16 C         143.0111  142.1091  168.2002 C.ar    1  UNL1       -0.0029
     17 C         143.0413  142.5981  169.6179 C.ar    1  UNL1       -0.0003
     18 C         141.8110  143.1993  170.2303 C.ar    1  UNL1       -0.0000
     19 C         140.5505  143.3114  169.4250 C.ar    1  UNL1       -0.0003
     20 C         140.5202  142.8224  168.0073 C.ar    1  UNL1       -0.0029
     21 N         143.0034  141.5138  165.2316 N.3     1  UNL1       -0.2690
     22 C         143.5470  140.1257  165.0648 C.3     1  UNL1        0.0724
     23 C         144.8301  139.9073  164.3193 C.3     1  UNL1        0.0174
     24 C         145.5697  141.0769  163.7405 C.3     1  UNL1        0.0029
     25 C         145.0262  142.4650  163.9073 C.3     1  UNL1        0.0174
     26 C         143.7430  142.6834  164.6529 C.3     1  UNL1        0.0724
@<TRIPOS>BOND
     1     2     3   ar
     2     3     4   ar
     3     4     5   ar
     4     5     1    1
     5     1    14    1
     6    14    15    1
     7    15    16   ar
     8    16    17   ar
     9    17    18   ar
    10    18    19   ar
    11    19    20   ar
    12    14    21    1
    13    21    22    1
    14    22    23    1
    15    23    24    1
    16    24    25    1
    17    25    26    1
    18     1     8    1
    19     8     9    1
    20     9    10    1
    21    10    11    1
    22    11    12    1
    23    12    13    1
    24     5     6   ar
    25     6     7   ar
    26     7     2   ar
    27    20    15   ar
    28    26    21    1
    29    13     8    1
@<TRIPOS>MOLECULE
*****
 26 29 0 0 0
SMALL
GASTEIGER

@<TRIPOS>ATOM
      1 C         141.7292  141.7239  166.0061 C.3     1  UNL1        0.0991
      2 C         141.8218  143.2038  170.2548 C.ar    1  UNL1       -0.0000
      3 C         140.5670  143.3323  169.4430 C.ar    1  UNL1       -0.0003
      4 C         140.5362  142.8390  168.0268 C.ar    1  UNL1       -0.0029
      5 C         141.7601  142.2172  167.4223 C.ar    1  UNL1       -0.0061
      6 C         143.0148  142.0887  168.2341 C.ar    1  UNL1       -0.0029
      7 C         143.0457  142.5820  169.6503 C.ar    1  UNL1       -0.0003
      8 N         143.0123  141.4918  165.2647 N.3     1  UNL1       -0.2690
      9 C         143.7744  142.6548  164.7019 C.3     1  UNL1        0.0724
     10 C         145.0575  142.4226  163.9604 C.3     1  UNL1        0.0174
     11 C         145.5785  141.0274  163.7817 C.3     1  UNL1        0.0029
     12 C         144.8165  139.8644  164.3445 C.3     1  UNL1        0.0174
     13 C         143.5334  140.0965  165.0859 C.3     1  UNL1        0.0724
     14 C         140.4153  141.4628  165.3313 C.3     1  UNL1        0.0991
     15 C         139.7486  142.5499  164.5417 C.ar    1  UNL1       -0.0061
     16 C         138.4415  142.2845  163.8551 C.ar    1  UNL1       -0.0029
     17 C         137.7748  143.3716  163.0655 C.ar    1  UNL1       -0.0003
     18 C         138.4151  144.7242  162.9624 C.ar    1  UNL1       -0.0000
     19 C         139.7220  144.9896  163.6489 C.ar    1  UNL1       -0.0003
     20 C         140.3888  143.9025  164.4385 C.ar    1  UNL1       -0.0029
     21 N         139.7681  140.1144  165.4462 N.3     1  UNL1       -0.2690
     22 C         138.7588  139.8565  166.5254 C.3     1  UNL1        0.0724
     23 C         138.1115  138.5082  166.6403 C.3     1  UNL1        0.0174
     24 C         138.4736  137.4178  165.6759 C.3     1  UNL1        0.0029
     25 C         139.4830  137.6757  164.5967 C.3     1  UNL1        0.0174
     26 C         140.1302  139.0241  164.4818 C.3     1  UNL1        0.0724
@<TRIPOS>BOND
     1     2     3   ar
     2     3     4   ar
     3     4     5   ar
     4     5     1    1
     5     1    14    1
     6    14    15    1
     7    15    16   ar
     8    16    17   ar
     9    17    18   ar
    10    18    19   ar
    11    19    20   ar
    12    14    21    1
    13    21    22    1
    14    22    23    1
    15    23    24    1
    16    24    25    1
    17    25    26    1
    18     1     8    1
    19     8     9    1
    20     9    10    1
    21    10    11    1
    22    11    12    1
    23    12    13    1
    24     5     6   ar
    25     6     7   ar
    26     7     2   ar
    27    20    15   ar
    28    26    21    1
    29    13     8    1
@<TRIPOS>MOLECULE
*****
 26 29 0 0 0
SMALL
GASTEIGER

@<TRIPOS>ATOM
      1 C         140.4113  141.4635  165.3271 C.3     1  UNL1        0.0991
      2 C         138.4275  144.7456  162.9729 C.ar    1  UNL1       -0.0000
      3 C         139.7622  144.9842  163.6144 C.ar    1  UNL1       -0.0003
      4 C         140.4235  143.8902  164.3991 C.ar    1  UNL1       -0.0029
      5 C         139.7501  142.5575  164.5423 C.ar    1  UNL1       -0.0061
      6 C         138.4154  142.3189  163.9008 C.ar    1  UNL1       -0.0029
      7 C         137.7541  143.4130  163.1160 C.ar    1  UNL1       -0.0003
      8 N         139.7608  140.1158  165.4300 N.3     1  UNL1       -0.2690
      9 C         138.7733  139.8414  166.5252 C.3     1  UNL1        0.0724
     10 C         138.1228  138.4936  166.6281 C.3     1  UNL1        0.0174
     11 C         138.4598  137.4205  165.6359 C.3     1  UNL1        0.0029
     12 C         139.4473  137.6949  164.5406 C.3     1  UNL1        0.0174
     13 C         140.0978  139.0426  164.4377 C.3     1  UNL1        0.0724
     14 C         141.7231  141.7171  166.0088 C.3     1  UNL1        0.0991
     15 C         141.7491  142.2196  167.4219 C.ar    1  UNL1       -0.0061
     16 C         140.5226  142.8441  168.0186 C.ar    1  UNL1       -0.0029
     17 C         140.5487  143.3466  169.4316 C.ar    1  UNL1       -0.0003
     18 C         141.8012  143.2247  170.2481 C.ar    1  UNL1       -0.0000
     19 C         143.0275  142.6003  169.6514 C.ar    1  UNL1       -0.0003
     20 C         143.0015  142.0978  168.2383 C.ar    1  UNL1       -0.0029
     21 N         143.0089  141.4682  165.2776 N.3     1  UNL1       -0.2690
     22 C         143.7946  142.6217  164.7279 C.3     1  UNL1        0.0724
     23 C         145.0804  142.3729  163.9967 C.3     1  UNL1        0.0174
     24 C         145.5806  140.9704  163.8150 C.3     1  UNL1        0.0029
     25 C         144.7949  139.8168  164.3646 C.3     1  UNL1        0.0174
     26 C         143.5091  140.0658  165.0959 C.3     1  UNL1        0.0724
@<TRIPOS>BOND
     1     2     3   ar
     2     3     4   ar
     3     4     5   ar
     4     5     1    1
     5     1    14    1
     6    14    15    1
     7    15    16   ar
     8    16    17   ar
     9    17    18   ar
    10    18    19   ar
    11    19    20   ar
    12    14    21    1
    13    21    22    1
    14    22    23    1
    15    23    24    1
    16    24    25    1
    17    25    26    1
    18     1     8    1
    19     8     9    1
    20     9    10    1
    21    10    11    1
    22    11    12    1
    23    12    13    1
    24     5     6   ar
    25     6     7   ar
    26     7     2   ar
    27    20    15   ar
    28    26    21    1
    29    13     8    1
@<TRIPOS>MOLECULE
*****
 26 29 0 0 0
SMALL
GASTEIGER

@<TRIPOS>ATOM
      1 C         141.7267  141.7357  165.9665 C.3     1  UNL1        0.0991
      2 C         145.5925  141.1126  163.7492 C.ar    1  UNL1       -0.0000
      3 C         144.8576  139.9364  164.3204 C.ar    1  UNL1       -0.0003
      4 C         143.5690  140.1441  165.0595 C.ar    1  UNL1       -0.0029
      5 C         143.0153  141.5280  165.2274 C.ar    1  UNL1       -0.0061
      6 C         143.7503  142.7042  164.6562 C.ar    1  UNL1       -0.0029
      7 C         145.0389  142.4965  163.9170 C.ar    1  UNL1       -0.0003
      8 N         141.7458  142.2228  167.3851 N.3     1  UNL1       -0.2690
      9 C         140.5094  142.8185  167.9903 C.3     1  UNL1        0.0724
     10 C         140.5286  143.3056  169.4089 C.3     1  UNL1        0.0174
     11 C         141.7842  143.1969  170.2223 C.3     1  UNL1        0.0029
     12 C         143.0206  142.6012  169.6171 C.3     1  UNL1        0.0174
     13 C         143.0015  142.1141  168.1985 C.3     1  UNL1        0.0724
     14 C         140.4189  141.4564  165.2871 C.3     1  UNL1        0.0991
     15 C         139.7817  140.1044  165.4138 C.ar    1  UNL1       -0.0061
     16 C         138.7183  139.8701  166.4455 C.ar    1  UNL1       -0.0029
     17 C         138.0811  138.5181  166.5721 C.ar    1  UNL1       -0.0003
     18 C         138.5072  137.4004  165.6670 C.ar    1  UNL1       -0.0000
     19 C         139.5705  137.6347  164.6353 C.ar    1  UNL1       -0.0003
     20 C         140.2078  138.9867  164.5087 C.ar    1  UNL1       -0.0029
     21 N         139.7483  142.5290  164.4810 N.3     1  UNL1       -0.2690
     22 C         138.5417  142.2009  163.6526 C.3     1  UNL1        0.0724
     23 C         137.8711  143.2735  162.8465 C.3     1  UNL1        0.0174
     24 C         138.4071  144.6743  162.8688 C.3     1  UNL1        0.0029
     25 C         139.6138  145.0024  163.6973 C.3     1  UNL1        0.0174
     26 C         140.2844  143.9298  164.5034 C.3     1  UNL1        0.0724
@<TRIPOS>BOND
     1     2     3   ar
     2     3     4   ar
     3     4     5   ar
     4     5     1    1
     5     1    14    1
     6    14    15    1
     7    15    16   ar
     8    16    17   ar
     9    17    18   ar
    10    18    19   ar
    11    19    20   ar
    12    14    21    1
    13    21    22    1
    14    22    23    1
    15    23    24    1
    16    24    25    1
    17    25    26    1
    18     1     8    1
    19     8     9    1
    20     9    10    1
    21    10    11    1
    22    11    12    1
    23    12    13    1
    24     5     6   ar
    25     6     7   ar
    26     7     2   ar
    27    20    15   ar
    28    26    21    1
    29    13     8    1
@<TRIPOS>MOLECULE
*****
 26 29 0 0 0
SMALL
GASTEIGER

@<TRIPOS>ATOM
      1 C         140.4144  141.4536  165.2908 C.3     1  UNL1        0.0991
      2 C         138.5047  137.3976  165.6804 C.ar    1  UNL1       -0.0000
      3 C         138.0880  138.5134  166.5920 C.ar    1  UNL1       -0.0003
      4 C         138.7245  139.8654  166.4621 C.ar    1  UNL1       -0.0029
      5 C         139.7778  140.1016  165.4206 C.ar    1  UNL1       -0.0061
      6 C         140.1946  138.9857  164.5090 C.ar    1  UNL1       -0.0029
      7 C         139.5580  137.6337  164.6389 C.ar    1  UNL1       -0.0003
      8 N         139.7425  142.5245  164.4835 N.3     1  UNL1       -0.2690
      9 C         138.5335  142.1950  163.6590 C.3     1  UNL1        0.0724
     10 C         137.8616  143.2659  162.8517 C.3     1  UNL1        0.0174
     11 C         138.3987  144.6663  162.8689 C.3     1  UNL1        0.0029
     12 C         139.6078  144.9958  163.6934 C.3     1  UNL1        0.0174
     13 C         140.2796  143.9249  164.5006 C.3     1  UNL1        0.0724
     14 C         141.7228  141.7347  165.9682 C.3     1  UNL1        0.0991
     15 C         143.0107  141.5261  165.2280 C.ar    1  UNL1       -0.0061
     16 C         143.7423  142.7011  164.6499 C.ar    1  UNL1       -0.0029
     17 C         145.0302  142.4925  163.9097 C.ar    1  UNL1       -0.0003
     18 C         145.5864  141.1088  163.7475 C.ar    1  UNL1       -0.0000
     19 C         144.8547  139.9339  164.3256 C.ar    1  UNL1       -0.0003
     20 C         143.5669  140.1425  165.0658 C.ar    1  UNL1       -0.0029
     21 N         141.7434  142.2245  167.3859 N.3     1  UNL1       -0.2690
     22 C         140.5083  142.8237  167.9903 C.3     1  UNL1        0.0724
     23 C         140.5289  143.3135  169.4079 C.3     1  UNL1        0.0174
     24 C         141.7847  143.2040  170.2211 C.3     1  UNL1        0.0029
     25 C         143.0198  142.6048  169.6167 C.3     1  UNL1        0.0174
     26 C         142.9991  142.1150  168.1990 C.3     1  UNL1        0.0724
@<TRIPOS>BOND
     1     2     3   ar
     2     3     4   ar
     3     4     5   ar
     4     5     1    1
     5     1    14    1
     6    14    15    1
     7    15    16   ar
     8    16    17   ar
     9    17    18   ar
    10    18    19   ar
    11    19    20   ar
    12    14    21    1
    13    21    22    1
    14    22    23    1
    15    23    24    1
    16    24    25    1
    17    25    26    1
    18     1     8    1
    19     8     9    1
    20     9    10    1
    21    10    11    1
    22    11    12    1
    23    12    13    1
    24     5     6   ar
    25     6     7   ar
    26     7     2   ar
    27    20    15   ar
    28    26    21    1
    29    13     8    1
@<TRIPOS>MOLECULE
*****
 26 29 0 0 0
SMALL
GASTEIGER

@<TRIPOS>ATOM
      1 C         141.7460  141.7554  165.9706 C.3     1  UNL1        0.0991
      2 C         145.6115  141.1494  163.7479 C.ar    1  UNL1       -0.0000
      3 C         144.8722  139.9681  164.3027 C.ar    1  UNL1       -0.0003
      4 C         143.5837  140.1701  165.0436 C.ar    1  UNL1       -0.0029
      5 C         143.0345  141.5534  165.2297 C.ar    1  UNL1       -0.0061
      6 C         143.7738  142.7347  164.6750 C.ar    1  UNL1       -0.0029
      7 C         145.0623  142.5328  163.9341 C.ar    1  UNL1       -0.0003
      8 N         141.7653  142.2318  167.3928 N.3     1  UNL1       -0.2690
      9 C         140.5315  142.8310  167.9999 C.3     1  UNL1        0.0724
     10 C         140.5509  143.3075  169.4221 C.3     1  UNL1        0.0174
     11 C         141.8041  143.1848  170.2372 C.3     1  UNL1        0.0029
     12 C         143.0379  142.5856  169.6301 C.3     1  UNL1        0.0174
     13 C         143.0186  142.1091  168.2079 C.3     1  UNL1        0.0724
     14 C         140.4381  141.4809  165.2894 C.3     1  UNL1        0.0991
     15 C         139.7645  142.5611  164.4961 C.ar    1  UNL1       -0.0061
     16 C         138.5221  142.2533  163.7138 C.ar    1  UNL1       -0.0029
     17 C         137.8485  143.3335  162.9204 C.ar    1  UNL1       -0.0003
     18 C         138.4172  144.7215  162.9094 C.ar    1  UNL1       -0.0000
     19 C         139.6595  145.0293  163.6916 C.ar    1  UNL1       -0.0003
     20 C         140.3331  143.9491  164.4850 C.ar    1  UNL1       -0.0029
     21 N         139.8038  140.1262  165.4015 N.3     1  UNL1       -0.2690
     22 C         138.7589  139.8715  166.4471 C.3     1  UNL1        0.0724
     23 C         138.1246  138.5169  166.5592 C.3     1  UNL1        0.0174
     24 C         138.5352  137.4169  165.6257 C.3     1  UNL1        0.0029
     25 C         139.5801  137.6715  164.5801 C.3     1  UNL1        0.0174
     26 C         140.2144  139.0262  164.4680 C.3     1  UNL1        0.0724
@<TRIPOS>BOND
     1     2     3   ar
     2     3     4   ar
     3     4     5   ar
     4     5     1    1
     5     1    14    1
     6    14    15    1
     7    15    16   ar
     8    16    17   ar
     9    17    18   ar
    10    18    19   ar
    11    19    20   ar
    12    14    21    1
    13    21    22    1
    14    22    23    1
    15    23    24    1
    16    24    25    1
    17    25    26    1
    18     1     8    1
    19     8     9    1
    20     9    10    1
    21    10    11    1
    22    11    12    1
    23    12    13    1
    24     5     6   ar
    25     6     7   ar
    26     7     2   ar
    27    20    15   ar
    28    26    21    1
    29    13     8    1
