@<TRIPOS>MOLECULE
*****
 32 35 0 0 0
SMALL
GASTEIGER

@<TRIPOS>ATOM
      1 C         138.8352  142.3523  164.7448 C.ar    1  UNL1        0.0732
      2 C         139.5862  143.1126  165.7974 C.ar    1  UNL1        0.0129
      3 C         140.2314  142.1179  166.7163 C.ar    1  UNL1        0.0330
      4 S         139.8792  140.7428  166.2315 S.2     1  UNL1       -0.0720
      5 C         139.0163  140.8876  165.0131 C.ar    1  UNL1        0.0841
      6 C         141.0798  142.4415  167.9102 C.ar    1  UNL1        0.0335
      7 C         140.4852  143.1734  169.0767 C.ar    1  UNL1        0.0027
      8 C         141.3337  143.4969  170.2706 C.ar    1  UNL1        0.0002
      9 C         142.7768  143.0886  170.2980 C.ar    1  UNL1        0.0023
     10 C         143.3714  142.3568  169.1315 C.ar    1  UNL1        0.0297
     11 C         142.5230  142.0332  167.9376 C.ar    1  UNL1        0.1406
     12 F         143.1176  141.3013  166.7710 F       1  UNL1       -0.2042
     13 N         138.1960  144.4057  163.2871 N.am    1  UNL1       -0.3253
     14 C         138.0424  142.9515  163.6213 C.2     1  UNL1        0.2445
     15 O         137.0960  142.0964  162.8319 O.2     1  UNL1       -0.2703
     16 H         137.6756  144.7989  162.5496 H       1  UNL1        0.1453
     17 H         138.8171  144.9669  163.8052 H       1  UNL1        0.1453
     18 N         138.4364  139.7649  164.2049 N.pl3   1  UNL1       -0.2929
     19 H         137.5647  139.3797  164.4520 H       1  UNL1        0.1541
     20 C         139.1845  139.2292  163.0203 C.ar    1  UNL1        0.1321
     21 C         138.4459  138.8795  161.7624 C.ar    1  UNL1        0.0344
     22 C         139.1940  138.3438  160.5778 C.ar    1  UNL1        0.0041
     23 C         140.6807  138.1578  160.6511 C.ar    1  UNL1        0.0162
     24 C         141.4192  138.5075  161.9090 C.ar    1  UNL1        0.0766
     25 N         140.6711  139.0432  163.0936 N.ar    1  UNL1       -0.2335
     26 C         142.9057  138.3215  161.9822 C.3     1  UNL1        0.1188
     27 N         143.7876  139.4722  162.3672 N.3     1  UNL1       -0.2633
     28 C         144.4858  139.4704  163.6948 C.3     1  UNL1        0.1049
     29 C         145.3677  140.6211  164.0800 C.3     1  UNL1        0.1595
     30 O         145.5514  141.7735  163.1375 O.3     1  UNL1       -0.3508
     31 C         144.8531  141.7752  161.8100 C.3     1  UNL1        0.1595
     32 C         143.9713  140.6246  161.4248 C.3     1  UNL1        0.1049
@<TRIPOS>BOND
     1    13    14   am
     2    14    15    2
     3    14     1    1
     4     1     2   ar
     5     2     3   ar
     6     3     6    1
     7     6     7   ar
     8     7     8   ar
     9     8     9   ar
    10     9    10   ar
    11    10    11   ar
    12    11    12    1
    13     3     4   ar
    14     4     5   ar
    15     5    18    1
    16    18    20    1
    17    20    21   ar
    18    21    22   ar
    19    22    23   ar
    20    23    24   ar
    21    24    26    1
    22    26    27    1
    23    27    28    1
    24    28    29    1
    25    29    30    1
    26    30    31    1
    27    31    32    1
    28    24    25   ar
    29     5     1   ar
    30    25    20   ar
    31    11     6   ar
    32    32    27    1
    33    13    16    1
    34    13    17    1
    35    18    19    1
@<TRIPOS>MOLECULE
*****
 32 35 0 0 0
SMALL
GASTEIGER

@<TRIPOS>ATOM
      1 C         143.8278  141.0205  164.3022 C.ar    1  UNL1        0.0732
      2 C         143.8044  141.9135  165.5072 C.ar    1  UNL1        0.0129
      3 C         142.6317  141.5178  166.3547 C.ar    1  UNL1        0.0330
      4 S         141.9302  140.3804  165.6734 S.2     1  UNL1       -0.0720
      5 C         142.6695  140.0730  164.4049 C.ar    1  UNL1        0.0841
      6 C         142.2308  142.1489  167.6551 C.ar    1  UNL1        0.0335
      7 C         143.2084  142.2122  168.7909 C.ar    1  UNL1        0.0027
      8 C         142.8075  142.8433  170.0913 C.ar    1  UNL1        0.0002
      9 C         141.4289  143.4111  170.2558 C.ar    1  UNL1        0.0023
     10 C         140.4512  143.3478  169.1200 C.ar    1  UNL1        0.0297
     11 C         140.8522  142.7168  167.8196 C.ar    1  UNL1        0.1406
     12 F         139.8745  142.6535  166.6837 F       1  UNL1       -0.2042
     13 N         146.0860  141.8770  163.3445 N.am    1  UNL1       -0.3253
     14 C         144.8330  141.0669  163.1898 C.2     1  UNL1        0.2445
     15 O         144.5853  140.3032  161.9228 O.2     1  UNL1       -0.2703
     16 H         146.7457  141.9075  162.6144 H       1  UNL1        0.1453
     17 H         146.2486  142.3783  164.1761 H       1  UNL1        0.1453
     18 N         142.3130  139.0055  163.4132 N.pl3   1  UNL1       -0.2929
     19 H         142.9825  138.3324  163.1525 H       1  UNL1        0.1541
     20 C         140.9365  138.9636  162.8188 C.ar    1  UNL1        0.1321
     21 C         140.0688  137.7568  163.0207 C.ar    1  UNL1        0.0344
     22 C         138.6923  137.7149  162.4262 C.ar    1  UNL1        0.0041
     23 C         138.1834  138.8797  161.6298 C.ar    1  UNL1        0.0162
     24 C         139.0511  140.0865  161.4279 C.ar    1  UNL1        0.0766
     25 N         140.4276  140.1284  162.0223 N.ar    1  UNL1       -0.2335
     26 C         138.5423  141.2513  160.6315 C.3     1  UNL1        0.1188
     27 N         138.6944  142.6462  161.1617 N.3     1  UNL1       -0.2633
     28 C         139.6637  143.5920  160.5169 C.3     1  UNL1        0.1049
     29 C         139.8159  144.9870  161.0470 C.3     1  UNL1        0.1595
     30 O         138.9988  145.4361  162.2220 O.3     1  UNL1       -0.3508
     31 C         138.0295  144.4901  162.8668 C.3     1  UNL1        0.1595
     32 C         137.8774  143.0953  162.3367 C.3     1  UNL1        0.1049
@<TRIPOS>BOND
     1    13    14   am
     2    14    15    2
     3    14     1    1
     4     1     2   ar
     5     2     3   ar
     6     3     6    1
     7     6     7   ar
     8     7     8   ar
     9     8     9   ar
    10     9    10   ar
    11    10    11   ar
    12    11    12    1
    13     3     4   ar
    14     4     5   ar
    15     5    18    1
    16    18    20    1
    17    20    21   ar
    18    21    22   ar
    19    22    23   ar
    20    23    24   ar
    21    24    26    1
    22    26    27    1
    23    27    28    1
    24    28    29    1
    25    29    30    1
    26    30    31    1
    27    31    32    1
    28    24    25   ar
    29     5     1   ar
    30    25    20   ar
    31    11     6   ar
    32    32    27    1
    33    13    16    1
    34    13    17    1
    35    18    19    1
@<TRIPOS>MOLECULE
*****
 32 35 0 0 0
SMALL
GASTEIGER

@<TRIPOS>ATOM
      1 C         139.1881  139.4660  164.2285 C.ar    1  UNL1        0.0732
      2 C         138.7942  140.3468  165.3770 C.ar    1  UNL1        0.0129
      3 C         139.8899  140.2923  166.4000 C.ar    1  UNL1        0.0330
      4 S         140.9610  139.3779  165.8837 S.2     1  UNL1       -0.0720
      5 C         140.5273  138.8672  164.5417 C.ar    1  UNL1        0.0841
      6 C         139.9107  141.0239  167.7094 C.ar    1  UNL1        0.0335
      7 C         139.3772  140.3636  168.9460 C.ar    1  UNL1        0.0027
      8 C         139.3981  141.0951  170.2553 C.ar    1  UNL1        0.0002
      9 C         139.9525  142.4870  170.3280 C.ar    1  UNL1        0.0023
     10 C         140.4860  143.1473  169.0914 C.ar    1  UNL1        0.0297
     11 C         140.4651  142.4158  167.7821 C.ar    1  UNL1        0.1406
     12 F         140.9986  143.0761  166.5453 F       1  UNL1       -0.2042
     13 N         137.4037  140.2595  162.5149 N.am    1  UNL1       -0.3253
     14 C         138.3840  139.2261  162.9851 C.2     1  UNL1        0.2445
     15 O         138.5603  137.9529  162.2120 O.2     1  UNL1       -0.2703
     16 H         136.8760  140.1021  161.6988 H       1  UNL1        0.1453
     17 H         137.2880  141.0952  163.0223 H       1  UNL1        0.1453
     18 N         141.2975  137.9234  163.6665 N.pl3   1  UNL1       -0.2929
     19 H         141.2240  136.9516  163.8060 H       1  UNL1        0.1541
     20 C         142.1798  138.4602  162.5786 C.ar    1  UNL1        0.1321
     21 C         142.0685  137.9156  161.1855 C.ar    1  UNL1        0.0344
     22 C         142.9507  138.4524  160.0976 C.ar    1  UNL1        0.0041
     23 C         143.9443  139.5339  160.4030 C.ar    1  UNL1        0.0162
     24 C         144.0556  140.0786  161.7961 C.ar    1  UNL1        0.0766
     25 N         143.1734  139.5417  162.8840 N.ar    1  UNL1       -0.2335
     26 C         145.0492  141.1600  162.1014 C.3     1  UNL1        0.1188
     27 N         144.6295  142.3619  162.8947 N.3     1  UNL1       -0.2633
     28 C         144.0131  143.5404  162.2010 C.3     1  UNL1        0.1049
     29 C         143.5934  144.7425  162.9941 C.3     1  UNL1        0.1595
     30 O         143.7902  144.7660  164.4810 O.3     1  UNL1       -0.3508
     31 C         144.4066  143.5874  165.1746 C.3     1  UNL1        0.1595
     32 C         144.8263  142.3855  164.3815 C.3     1  UNL1        0.1049
@<TRIPOS>BOND
     1    13    14   am
     2    14    15    2
     3    14     1    1
     4     1     2   ar
     5     2     3   ar
     6     3     6    1
     7     6     7   ar
     8     7     8   ar
     9     8     9   ar
    10     9    10   ar
    11    10    11   ar
    12    11    12    1
    13     3     4   ar
    14     4     5   ar
    15     5    18    1
    16    18    20    1
    17    20    21   ar
    18    21    22   ar
    19    22    23   ar
    20    23    24   ar
    21    24    26    1
    22    26    27    1
    23    27    28    1
    24    28    29    1
    25    29    30    1
    26    30    31    1
    27    31    32    1
    28    24    25   ar
    29     5     1   ar
    30    25    20   ar
    31    11     6   ar
    32    32    27    1
    33    13    16    1
    34    13    17    1
    35    18    19    1
@<TRIPOS>MOLECULE
*****
 32 35 0 0 0
SMALL
GASTEIGER

@<TRIPOS>ATOM
      1 C         138.8506  142.3633  164.6907 C.ar    1  UNL1        0.0732
      2 C         139.0601  141.2758  165.7024 C.ar    1  UNL1        0.0129
      3 C         140.2801  141.6182  166.5051 C.ar    1  UNL1        0.0330
      4 S         140.8247  142.9173  165.9895 S.2     1  UNL1       -0.0720
      5 C         139.9412  143.3778  164.8682 C.ar    1  UNL1        0.0841
      6 C         140.8548  140.8044  167.6265 C.ar    1  UNL1        0.0335
      7 C         140.1233  140.7047  168.9322 C.ar    1  UNL1        0.0027
      8 C         140.6979  139.8909  170.0536 C.ar    1  UNL1        0.0002
      9 C         142.0041  139.1767  169.8692 C.ar    1  UNL1        0.0023
     10 C         142.7355  139.2763  168.5635 C.ar    1  UNL1        0.0297
     11 C         142.1609  140.0902  167.4421 C.ar    1  UNL1        0.1406
     12 F         142.8924  140.1898  166.1363 F       1  UNL1       -0.2042
     13 N         136.9976  141.1789  163.3073 N.am    1  UNL1       -0.3253
     14 C         137.7447  142.4253  163.6793 C.2     1  UNL1        0.2445
     15 O         137.3858  143.7339  163.0398 O.2     1  UNL1       -0.2703
     16 H         136.2718  141.2197  162.6434 H       1  UNL1        0.1453
     17 H         137.2332  140.3201  163.7270 H       1  UNL1        0.1453
     18 N         140.1173  144.6325  164.0652 N.pl3   1  UNL1       -0.2929
     19 H         139.8672  145.5030  164.4510 H       1  UNL1        0.1541
     20 C         140.6745  144.5608  162.6744 C.ar    1  UNL1        0.1321
     21 C         140.0999  145.4244  161.5908 C.ar    1  UNL1        0.0344
     22 C         140.6572  145.3527  160.2001 C.ar    1  UNL1        0.0041
     23 C         141.7890  144.4175  159.8928 C.ar    1  UNL1        0.0162
     24 C         142.3636  143.5540  160.9764 C.ar    1  UNL1        0.0766
     25 N         141.8064  143.6256  162.3672 N.ar    1  UNL1       -0.2335
     26 C         143.4954  142.6188  160.6691 C.3     1  UNL1        0.1188
     27 N         144.0866  141.7735  161.7581 N.3     1  UNL1       -0.2633
     28 C         143.6218  140.3597  161.9460 C.3     1  UNL1        0.1049
     29 C         144.2129  139.5143  163.0349 C.3     1  UNL1        0.1595
     30 O         145.2689  140.0826  163.9360 O.3     1  UNL1       -0.3508
     31 C         145.7337  141.4963  163.7480 C.3     1  UNL1        0.1595
     32 C         145.1426  142.3417  162.6591 C.3     1  UNL1        0.1049
@<TRIPOS>BOND
     1    13    14   am
     2    14    15    2
     3    14     1    1
     4     1     2   ar
     5     2     3   ar
     6     3     6    1
     7     6     7   ar
     8     7     8   ar
     9     8     9   ar
    10     9    10   ar
    11    10    11   ar
    12    11    12    1
    13     3     4   ar
    14     4     5   ar
    15     5    18    1
    16    18    20    1
    17    20    21   ar
    18    21    22   ar
    19    22    23   ar
    20    23    24   ar
    21    24    26    1
    22    26    27    1
    23    27    28    1
    24    28    29    1
    25    29    30    1
    26    30    31    1
    27    31    32    1
    28    24    25   ar
    29     5     1   ar
    30    25    20   ar
    31    11     6   ar
    32    32    27    1
    33    13    16    1
    34    13    17    1
    35    18    19    1
@<TRIPOS>MOLECULE
*****
 32 35 0 0 0
SMALL
GASTEIGER

@<TRIPOS>ATOM
      1 C         140.7116  138.6578  164.6781 C.ar    1  UNL1        0.0732
      2 C         139.9386  139.3011  165.7910 C.ar    1  UNL1        0.0129
      3 C         140.8956  140.1161  166.6095 C.ar    1  UNL1        0.0330
      4 S         142.2602  139.9766  166.0024 S.2     1  UNL1       -0.0720
      5 C         142.1465  139.0753  164.8088 C.ar    1  UNL1        0.0841
      6 C         140.5490  140.9282  167.8221 C.ar    1  UNL1        0.0335
      7 C         140.0267  140.2507  169.0543 C.ar    1  UNL1        0.0027
      8 C         139.6801  141.0627  170.2668 C.ar    1  UNL1        0.0002
      9 C         139.8557  142.5523  170.2473 C.ar    1  UNL1        0.0023
     10 C         140.3779  143.2298  169.0152 C.ar    1  UNL1        0.0297
     11 C         140.7245  142.4177  167.8026 C.ar    1  UNL1        0.1406
     12 F         141.2468  143.0953  166.5704 F       1  UNL1       -0.2042
     13 N         138.6920  137.8281  163.2701 N.am    1  UNL1       -0.3253
     14 C         140.1487  137.7555  163.6203 C.2     1  UNL1        0.2445
     15 O         141.0425  136.7806  162.9128 O.2     1  UNL1       -0.2703
     16 H         138.3225  137.2359  162.5758 H       1  UNL1        0.1453
     17 H         138.1053  138.4680  163.7344 H       1  UNL1        0.1453
     18 N         143.2703  138.6637  163.9045 N.pl3   1  UNL1       -0.2929
     19 H         143.8624  137.9205  164.1620 H       1  UNL1        0.1541
     20 C         143.4920  139.3845  162.6079 C.ar    1  UNL1        0.1321
     21 C         143.5382  138.6156  161.3208 C.ar    1  UNL1        0.0344
     22 C         143.7599  139.3364  160.0241 C.ar    1  UNL1        0.0041
     23 C         143.9354  140.8261  160.0146 C.ar    1  UNL1        0.0162
     24 C         143.8893  141.5950  161.3017 C.ar    1  UNL1        0.0766
     25 N         143.6676  140.8742  162.5983 N.ar    1  UNL1       -0.2335
     26 C         144.0648  143.0845  161.2921 C.3     1  UNL1        0.1188
     27 N         142.9354  143.9757  161.7169 N.3     1  UNL1       -0.2633
     28 C         142.8967  144.5236  163.1127 C.3     1  UNL1        0.1049
     29 C         141.7673  145.4148  163.5376 C.3     1  UNL1        0.1595
     30 O         140.6767  145.7579  162.5666 O.3     1  UNL1       -0.3508
     31 C         140.7155  145.2099  161.1708 C.3     1  UNL1        0.1595
     32 C         141.8448  144.3188  160.7460 C.3     1  UNL1        0.1049
@<TRIPOS>BOND
     1    13    14   am
     2    14    15    2
     3    14     1    1
     4     1     2   ar
     5     2     3   ar
     6     3     6    1
     7     6     7   ar
     8     7     8   ar
     9     8     9   ar
    10     9    10   ar
    11    10    11   ar
    12    11    12    1
    13     3     4   ar
    14     4     5   ar
    15     5    18    1
    16    18    20    1
    17    20    21   ar
    18    21    22   ar
    19    22    23   ar
    20    23    24   ar
    21    24    26    1
    22    26    27    1
    23    27    28    1
    24    28    29    1
    25    29    30    1
    26    30    31    1
    27    31    32    1
    28    24    25   ar
    29     5     1   ar
    30    25    20   ar
    31    11     6   ar
    32    32    27    1
    33    13    16    1
    34    13    17    1
    35    18    19    1
@<TRIPOS>MOLECULE
*****
 32 35 0 0 0
SMALL
GASTEIGER

@<TRIPOS>ATOM
      1 C         138.7376  139.7896  163.8761 C.ar    1  UNL1        0.0732
      2 C         139.3895  139.1496  165.0659 C.ar    1  UNL1        0.0129
      3 C         139.7106  140.2301  166.0556 C.ar    1  UNL1        0.0330
      4 S         139.2571  141.5379  165.4775 S.2     1  UNL1       -0.0720
      5 C         138.6558  141.2656  164.1306 C.ar    1  UNL1        0.0841
      6 C         140.3694  140.0368  167.3893 C.ar    1  UNL1        0.0335
      7 C         139.5715  140.1930  168.6497 C.ar    1  UNL1        0.0027
      8 C         140.2303  139.9997  169.9833 C.ar    1  UNL1        0.0002
      9 C         141.6872  139.6500  170.0564 C.ar    1  UNL1        0.0023
     10 C         142.4852  139.4938  168.7960 C.ar    1  UNL1        0.0297
     11 C         141.8263  139.6871  167.4624 C.ar    1  UNL1        0.1406
     12 F         142.6243  139.5309  166.2019 F       1  UNL1       -0.2042
     13 N         138.4560  137.5988  162.5082 N.am    1  UNL1       -0.3253
     14 C         138.2527  139.0784  162.6477 C.2     1  UNL1        0.2445
     15 O         137.5645  139.8469  161.5588 O.2     1  UNL1       -0.2703
     16 H         138.1378  137.1320  161.7019 H       1  UNL1        0.1453
     17 H         138.9077  137.0945  163.2229 H       1  UNL1        0.1453
     18 N         138.0747  142.2896  163.2012 N.pl3   1  UNL1       -0.2929
     19 H         137.1139  142.2712  162.9871 H       1  UNL1        0.1541
     20 C         138.9574  143.3417  162.5980 C.ar    1  UNL1        0.1321
     21 C         138.5783  144.7892  162.7029 C.ar    1  UNL1        0.0344
     22 C         139.4610  145.8413  162.0997 C.ar    1  UNL1        0.0041
     23 C         140.7228  145.4459  161.3916 C.ar    1  UNL1        0.0162
     24 C         141.1020  143.9985  161.2866 C.ar    1  UNL1        0.0766
     25 N         140.2192  142.9464  161.8898 N.ar    1  UNL1       -0.2335
     26 C         142.3637  143.6031  160.5785 C.3     1  UNL1        0.1188
     27 N         143.3241  142.6534  161.2311 N.3     1  UNL1       -0.2633
     28 C         144.3324  143.1657  162.2164 C.3     1  UNL1        0.1049
     29 C         145.2928  142.2160  162.8691 C.3     1  UNL1        0.1595
     30 O         145.2448  140.7541  162.5364 O.3     1  UNL1       -0.3508
     31 C         144.2364  140.2420  161.5511 C.3     1  UNL1        0.1595
     32 C         143.2761  141.1916  160.8985 C.3     1  UNL1        0.1049
@<TRIPOS>BOND
     1    13    14   am
     2    14    15    2
     3    14     1    1
     4     1     2   ar
     5     2     3   ar
     6     3     6    1
     7     6     7   ar
     8     7     8   ar
     9     8     9   ar
    10     9    10   ar
    11    10    11   ar
    12    11    12    1
    13     3     4   ar
    14     4     5   ar
    15     5    18    1
    16    18    20    1
    17    20    21   ar
    18    21    22   ar
    19    22    23   ar
    20    23    24   ar
    21    24    26    1
    22    26    27    1
    23    27    28    1
    24    28    29    1
    25    29    30    1
    26    30    31    1
    27    31    32    1
    28    24    25   ar
    29     5     1   ar
    30    25    20   ar
    31    11     6   ar
    32    32    27    1
    33    13    16    1
    34    13    17    1
    35    18    19    1
@<TRIPOS>MOLECULE
*****
 32 35 0 0 0
SMALL
GASTEIGER

@<TRIPOS>ATOM
      1 C         138.9773  142.8688  164.8833 C.ar    1  UNL1        0.0732
      2 C         139.9033  142.6706  166.0466 C.ar    1  UNL1        0.0129
      3 C         139.7774  141.2470  166.5020 C.ar    1  UNL1        0.0330
      4 S         138.7735  140.5653  165.6203 S.2     1  UNL1       -0.0720
      5 C         138.2790  141.5676  164.6199 C.ar    1  UNL1        0.0841
      6 C         140.5243  140.6158  167.6396 C.ar    1  UNL1        0.0335
      7 C         139.8911  140.5299  168.9966 C.ar    1  UNL1        0.0027
      8 C         140.6379  139.8988  170.1340 C.ar    1  UNL1        0.0002
      9 C         142.0180  139.3536  169.9144 C.ar    1  UNL1        0.0023
     10 C         142.6512  139.4396  168.5574 C.ar    1  UNL1        0.0297
     11 C         141.9043  140.0707  167.4199 C.ar    1  UNL1        0.1406
     12 F         142.5375  140.1567  166.0628 F       1  UNL1       -0.2042
     13 N         139.8450  145.2037  164.1448 N.am    1  UNL1       -0.3253
     14 C         138.7835  144.1442  164.1180 C.2     1  UNL1        0.2445
     15 O         137.5282  144.3601  163.3258 O.2     1  UNL1       -0.2703
     16 H         139.7179  146.0408  163.6424 H       1  UNL1        0.1453
     17 H         140.6689  145.0620  164.6647 H       1  UNL1        0.1453
     18 N         137.2644  141.3134  163.5447 N.pl3   1  UNL1       -0.2929
     19 H         136.3039  141.3942  163.7453 H       1  UNL1        0.1541
     20 C         137.7131  140.9362  162.1640 C.ar    1  UNL1        0.1321
     21 C         138.0000  139.5012  161.8346 C.ar    1  UNL1        0.0344
     22 C         138.4487  139.1240  160.4539 C.ar    1  UNL1        0.0041
     23 C         138.6106  140.1817  159.4027 C.ar    1  UNL1        0.0162
     24 C         138.3237  141.6167  159.7321 C.ar    1  UNL1        0.0766
     25 N         137.8749  141.9939  161.1128 N.ar    1  UNL1       -0.2335
     26 C         138.4855  142.6744  158.6810 C.3     1  UNL1        0.1188
     27 N         139.6069  143.6656  158.7807 N.3     1  UNL1       -0.2633
     28 C         140.2523  144.1956  157.5347 C.3     1  UNL1        0.1049
     29 C         141.3737  145.1870  157.6343 C.3     1  UNL1        0.1595
     30 O         141.8496  145.6482  158.9800 O.3     1  UNL1       -0.3508
     31 C         141.2041  145.1182  160.2259 C.3     1  UNL1        0.1595
     32 C         140.0828  144.1269  160.1263 C.3     1  UNL1        0.1049
@<TRIPOS>BOND
     1    13    14   am
     2    14    15    2
     3    14     1    1
     4     1     2   ar
     5     2     3   ar
     6     3     6    1
     7     6     7   ar
     8     7     8   ar
     9     8     9   ar
    10     9    10   ar
    11    10    11   ar
    12    11    12    1
    13     3     4   ar
    14     4     5   ar
    15     5    18    1
    16    18    20    1
    17    20    21   ar
    18    21    22   ar
    19    22    23   ar
    20    23    24   ar
    21    24    26    1
    22    26    27    1
    23    27    28    1
    24    28    29    1
    25    29    30    1
    26    30    31    1
    27    31    32    1
    28    24    25   ar
    29     5     1   ar
    30    25    20   ar
    31    11     6   ar
    32    32    27    1
    33    13    16    1
    34    13    17    1
    35    18    19    1
@<TRIPOS>MOLECULE
*****
 32 35 0 0 0
SMALL
GASTEIGER

@<TRIPOS>ATOM
      1 C         139.8353  144.2416  163.9236 C.ar    1  UNL1        0.0732
      2 C         139.2474  143.6923  165.1896 C.ar    1  UNL1        0.0129
      3 C         140.3469  143.0211  165.9583 C.ar    1  UNL1        0.0330
      4 S         141.6143  143.1556  165.1674 S.2     1  UNL1       -0.0720
      5 C         141.2982  143.9099  163.9099 C.ar    1  UNL1        0.0841
      6 C         140.2039  142.3358  167.2849 C.ar    1  UNL1        0.0335
      7 C         140.3620  143.1189  168.5545 C.ar    1  UNL1        0.0027
      8 C         140.2190  142.4336  169.8810 C.ar    1  UNL1        0.0002
      9 C         139.9180  140.9652  169.9381 C.ar    1  UNL1        0.0023
     10 C         139.7599  140.1821  168.6685 C.ar    1  UNL1        0.0297
     11 C         139.9029  140.8675  167.3420 C.ar    1  UNL1        0.1406
     12 F         139.7448  140.0844  166.0723 F       1  UNL1       -0.2042
     13 N         137.6648  144.6414  162.5529 N.am    1  UNL1       -0.3253
     14 C         139.0912  144.9909  162.8585 C.2     1  UNL1        0.2445
     15 O         139.7733  146.0898  162.0988 O.2     1  UNL1       -0.2703
     16 H         137.1764  145.1333  161.8538 H       1  UNL1        0.1453
     17 H         137.2171  143.9202  163.0515 H       1  UNL1        0.1453
     18 N         142.2736  144.2693  162.8286 N.pl3   1  UNL1       -0.2929
     19 H         142.6117  145.1912  162.7571 H       1  UNL1        0.1541
     20 C         142.7341  143.2242  161.8561 C.ar    1  UNL1        0.1321
     21 C         142.8009  143.5402  160.3913 C.ar    1  UNL1        0.0344
     22 C         143.2613  142.4951  159.4189 C.ar    1  UNL1        0.0041
     23 C         143.6549  141.1340  159.9112 C.ar    1  UNL1        0.0162
     24 C         143.5881  140.8180  161.3760 C.ar    1  UNL1        0.0766
     25 N         143.1277  141.8631  162.3485 N.ar    1  UNL1       -0.2335
     26 C         143.9817  139.4569  161.8683 C.3     1  UNL1        0.1188
     27 N         143.1076  138.7319  162.8483 N.3     1  UNL1       -0.2633
     28 C         141.9723  137.8841  162.3561 C.3     1  UNL1        0.1049
     29 C         141.0980  137.1590  163.3360 C.3     1  UNL1        0.1595
     30 O         141.3591  137.2819  164.8080 O.3     1  UNL1       -0.3508
     31 C         142.4945  138.1298  165.3000 C.3     1  UNL1        0.1595
     32 C         143.3687  138.8548  164.3202 C.3     1  UNL1        0.1049
@<TRIPOS>BOND
     1    13    14   am
     2    14    15    2
     3    14     1    1
     4     1     2   ar
     5     2     3   ar
     6     3     6    1
     7     6     7   ar
     8     7     8   ar
     9     8     9   ar
    10     9    10   ar
    11    10    11   ar
    12    11    12    1
    13     3     4   ar
    14     4     5   ar
    15     5    18    1
    16    18    20    1
    17    20    21   ar
    18    21    22   ar
    19    22    23   ar
    20    23    24   ar
    21    24    26    1
    22    26    27    1
    23    27    28    1
    24    28    29    1
    25    29    30    1
    26    30    31    1
    27    31    32    1
    28    24    25   ar
    29     5     1   ar
    30    25    20   ar
    31    11     6   ar
    32    32    27    1
    33    13    16    1
    34    13    17    1
    35    18    19    1
@<TRIPOS>MOLECULE
*****
 32 35 0 0 0
SMALL
GASTEIGER

@<TRIPOS>ATOM
      1 C         142.5306  143.5226  164.3374 C.ar    1  UNL1        0.0732
      2 C         142.4291  142.6896  165.5808 C.ar    1  UNL1        0.0129
      3 C         141.0327  142.8193  166.1129 C.ar    1  UNL1        0.0330
      4 S         140.2711  143.7324  165.1985 S.2     1  UNL1       -0.0720
      5 C         141.1968  144.1670  164.1012 C.ar    1  UNL1        0.0841
      6 C         140.4927  142.1528  167.3435 C.ar    1  UNL1        0.0335
      7 C         140.5152  142.8743  168.6584 C.ar    1  UNL1        0.0027
      8 C         139.9752  142.2078  169.8889 C.ar    1  UNL1        0.0002
      9 C         139.4127  140.8199  169.8045 C.ar    1  UNL1        0.0023
     10 C         139.3902  140.0984  168.4897 C.ar    1  UNL1        0.0297
     11 C         139.9301  140.7648  167.2592 C.ar    1  UNL1        0.1406
     12 F         139.9076  140.0434  165.9442 F       1  UNL1       -0.2042
     13 N         144.8359  142.6473  163.5192 N.am    1  UNL1       -0.3253
     14 C         143.7514  143.6829  163.4808 C.2     1  UNL1        0.2445
     15 O         143.8877  144.8788  162.5857 O.2     1  UNL1       -0.2703
     16 H         145.6372  142.7526  162.9570 H       1  UNL1        0.1453
     17 H         144.7465  141.8624  164.1067 H       1  UNL1        0.1453
     18 N         140.8498  145.0850  162.9668 N.pl3   1  UNL1       -0.2929
     19 H         140.9099  146.0603  163.0867 H       1  UNL1        0.1541
     20 C         140.4111  144.5170  161.6496 C.ar    1  UNL1        0.1321
     21 C         140.8213  145.1851  160.3708 C.ar    1  UNL1        0.0344
     22 C         140.3826  144.6171  159.0537 C.ar    1  UNL1        0.0041
     23 C         139.5337  143.3810  159.0153 C.ar    1  UNL1        0.0162
     24 C         139.1235  142.7129  160.2942 C.ar    1  UNL1        0.0766
     25 N         139.5622  143.2809  161.6113 N.ar    1  UNL1       -0.2335
     26 C         138.2747  141.4768  160.2558 C.3     1  UNL1        0.1188
     27 N         138.8096  140.1826  160.7933 N.3     1  UNL1       -0.2633
     28 C         137.9283  139.2915  161.6174 C.3     1  UNL1        0.1049
     29 C         138.4631  137.9972  162.1550 C.3     1  UNL1        0.1595
     30 O         139.8792  137.5940  161.8684 O.3     1  UNL1       -0.3508
     31 C         140.7604  138.4852  161.0442 C.3     1  UNL1        0.1595
     32 C         140.2256  139.7795  160.5067 C.3     1  UNL1        0.1049
@<TRIPOS>BOND
     1    13    14   am
     2    14    15    2
     3    14     1    1
     4     1     2   ar
     5     2     3   ar
     6     3     6    1
     7     6     7   ar
     8     7     8   ar
     9     8     9   ar
    10     9    10   ar
    11    10    11   ar
    12    11    12    1
    13     3     4   ar
    14     4     5   ar
    15     5    18    1
    16    18    20    1
    17    20    21   ar
    18    21    22   ar
    19    22    23   ar
    20    23    24   ar
    21    24    26    1
    22    26    27    1
    23    27    28    1
    24    28    29    1
    25    29    30    1
    26    30    31    1
    27    31    32    1
    28    24    25   ar
    29     5     1   ar
    30    25    20   ar
    31    11     6   ar
    32    32    27    1
    33    13    16    1
    34    13    17    1
    35    18    19    1
