@<TRIPOS>MOLECULE
*****
 37 42 0 0 0
SMALL
GASTEIGER

@<TRIPOS>ATOM
      1 C         142.5108  136.8200  157.5248 C.3     1  UNL1        0.1161
      2 C         143.2415  135.5222  157.3460 C.3     1  UNL1        0.0510
      3 C         142.8565  134.5918  156.2343 C.2     1  UNL1       -0.0044
      4 C         141.7408  134.9591  155.3013 C.2     1  UNL1        0.0689
      5 N         141.5858  133.8491  154.3044 N.2     1  UNL1       -0.2526
      6 C         142.6057  132.7957  154.6212 C.2     1  UNL1        0.0627
      7 C         142.9207  131.4780  153.9777 C.3     1  UNL1        0.0717
      8 C         144.0211  130.6192  154.5269 C.2     1  UNL1       -0.0198
      9 C         144.8064  131.0782  155.7197 C.2     1  UNL1       -0.0042
     10 C         144.4913  132.3960  156.3632 C.2     1  UNL1        0.0006
     11 C         143.3910  133.2547  155.8139 C.2     1  UNL1        0.0111
     12 C         141.0102  136.2569  155.4801 C.3     1  UNL1        0.0949
     13 N         141.3952  137.1873  156.5919 N.3     1  UNL1       -0.2887
     14 H         140.5628  137.3202  157.1662 H       1  UNL1        0.1239
     15 C         143.2695  138.6712  160.8509 C.ar    1  UNL1        0.0770
     16 C         143.7073  139.6932  159.8441 C.ar    1  UNL1        0.1171
     17 N         143.4765  139.1241  158.4755 N.ar    1  UNL1       -0.2282
     18 C         142.8959  137.7505  158.6366 C.ar    1  UNL1        0.1318
     19 N         142.7679  137.4705  160.1047 N.ar    1  UNL1       -0.3397
     20 H         142.4165  136.6439  160.5077 H       1  UNL1        0.1671
     21 C         142.1986  138.5778  164.6712 C.ar    1  UNL1        0.1469
     22 C         143.4319  139.1272  165.3248 C.ar    1  UNL1        0.0372
     23 C         144.6110  139.5246  164.4872 C.ar    1  UNL1        0.0032
     24 C         144.5568  139.3726  162.9959 C.ar    1  UNL1        0.0017
     25 C         143.3236  138.8232  162.3423 C.ar    1  UNL1        0.0202
     26 C         142.1444  138.4258  163.1799 C.ar    1  UNL1        0.0387
     27 O         141.0194  138.1804  165.5089 O.3     1  UNL1       -0.4045
     28 F         138.2623  139.0793  164.7405 F       1  UNL1       -0.1328
     29 C         139.6409  138.6299  165.1247 C.3     1  UNL1        0.5753
     30 F         139.2091  137.1988  165.0000 F       1  UNL1       -0.1328
     31 F         140.0727  140.0609  165.2495 F       1  UNL1       -0.1328
     32 C         139.8945  136.6242  154.5472 C.3     1  UNL1        0.0252
     33 C         140.0271  136.3563  153.0774 C.3     1  UNL1        0.0339
     34 C         138.9113  136.7236  152.1445 C.3     1  UNL1        0.1422
     35 O         137.6631  137.3590  152.6814 O.3     1  UNL1       -0.3538
     36 C         137.5306  137.6270  154.1514 C.3     1  UNL1        0.1422
     37 C         138.6463  137.2596  155.0842 C.3     1  UNL1        0.0339
@<TRIPOS>BOND
     1    28    29    1
     2    29    30    1
     3    29    31    1
     4    29    27    1
     5    27    21    1
     6    21    22   ar
     7    22    23   ar
     8    23    24   ar
     9    24    25   ar
    10    25    15    1
    11    15    16   ar
    12    16    17   ar
    13    17    18   ar
    14     1    18    1
    15     1     2    1
    16     2     3    1
    17     3     4    2
    18     4     5    1
    19     5     6    2
    20     6     7    1
    21     7     8    1
    22     8     9    2
    23     9    10    1
    24    10    11    2
    25     4    12    1
    26    12    32    1
    27    32    33    1
    28    33    34    1
    29    34    35    1
    30    35    36    1
    31    36    37    1
    32    12    13    1
    33    18    19   ar
    34    25    26   ar
    35    26    21   ar
    36    19    15   ar
    37    13     1    1
    38    11     3    1
    39    37    32    1
    40    11     6    1
    41    13    14    1
    42    19    20    1
@<TRIPOS>MOLECULE
*****
 37 42 0 0 0
SMALL
GASTEIGER

@<TRIPOS>ATOM
      1 C         142.5246  137.0496  157.2605 C.3     1  UNL1        0.1161
      2 C         143.2424  135.7371  157.1497 C.3     1  UNL1        0.0510
      3 C         142.8131  134.7320  156.1224 C.2     1  UNL1       -0.0044
      4 C         141.6661  135.0393  155.2059 C.2     1  UNL1        0.0689
      5 N         141.4701  133.8617  154.2977 N.2     1  UNL1       -0.2526
      6 C         142.4960  132.8266  154.6529 C.2     1  UNL1        0.0627
      7 C         142.7815  131.4637  154.0952 C.3     1  UNL1        0.0717
      8 C         143.8970  130.6388  154.6652 C.2     1  UNL1       -0.0198
      9 C         144.7271  131.1767  155.7929 C.2     1  UNL1       -0.0042
     10 C         144.4415  132.5395  156.3506 C.2     1  UNL1        0.0006
     11 C         143.3260  133.3645  155.7806 C.2     1  UNL1        0.0111
     12 C         140.9484  136.3518  155.3167 C.3     1  UNL1        0.0949
     13 N         141.3776  137.3570  156.3440 N.3     1  UNL1       -0.2887
     14 H         140.5672  137.5368  156.9367 H       1  UNL1        0.1239
     15 C         143.4418  139.1171  160.4148 C.ar    1  UNL1        0.0770
     16 C         143.7871  140.0858  159.3229 C.ar    1  UNL1        0.1171
     17 N         143.4855  139.4293  158.0084 N.ar    1  UNL1       -0.2282
     18 C         142.9539  138.0548  158.2879 C.ar    1  UNL1        0.1318
     19 N         142.9269  137.8618  159.7752 N.ar    1  UNL1       -0.3397
     20 H         142.6243  137.0533  160.2484 H       1  UNL1        0.1671
     21 C         144.4822  140.8060  163.8522 C.ar    1  UNL1        0.1469
     22 C         143.8748  139.8482  164.8339 C.ar    1  UNL1        0.0372
     23 C         143.1231  138.6467  164.3426 C.ar    1  UNL1        0.0032
     24 C         142.9788  138.4031  162.8696 C.ar    1  UNL1        0.0017
     25 C         143.5862  139.3608  161.8879 C.ar    1  UNL1        0.0202
     26 C         144.3379  140.5623  162.3792 C.ar    1  UNL1        0.0387
     27 O         145.2339  142.0075  164.3435 O.3     1  UNL1       -0.4045
     28 F         143.8167  144.6306  164.6769 F       1  UNL1       -0.1328
     29 C         144.5253  143.3190  164.5102 C.3     1  UNL1        0.5753
     30 F         144.7680  143.6339  163.0639 F       1  UNL1       -0.1328
     31 F         144.2826  143.0040  165.9565 F       1  UNL1       -0.1328
     32 C         139.8014  136.6592  154.4002 C.3     1  UNL1        0.0252
     33 C         139.8979  136.3271  152.9407 C.3     1  UNL1        0.0339
     34 C         138.7508  136.6345  152.0242 C.3     1  UNL1        0.1422
     35 O         137.5074  137.2739  152.5673 O.3     1  UNL1       -0.3538
     36 C         137.4109  137.6059  154.0270 C.3     1  UNL1        0.1422
     37 C         138.5579  137.2986  154.9433 C.3     1  UNL1        0.0339
@<TRIPOS>BOND
     1    28    29    1
     2    29    30    1
     3    29    31    1
     4    29    27    1
     5    27    21    1
     6    21    22   ar
     7    22    23   ar
     8    23    24   ar
     9    24    25   ar
    10    25    15    1
    11    15    16   ar
    12    16    17   ar
    13    17    18   ar
    14     1    18    1
    15     1     2    1
    16     2     3    1
    17     3     4    2
    18     4     5    1
    19     5     6    2
    20     6     7    1
    21     7     8    1
    22     8     9    2
    23     9    10    1
    24    10    11    2
    25     4    12    1
    26    12    32    1
    27    32    33    1
    28    33    34    1
    29    34    35    1
    30    35    36    1
    31    36    37    1
    32    12    13    1
    33    18    19   ar
    34    25    26   ar
    35    26    21   ar
    36    19    15   ar
    37    13     1    1
    38    11     3    1
    39    37    32    1
    40    11     6    1
    41    13    14    1
    42    19    20    1
@<TRIPOS>MOLECULE
*****
 37 42 0 0 0
SMALL
GASTEIGER

@<TRIPOS>ATOM
      1 C         140.8591  144.0405  160.5821 C.3     1  UNL1        0.1161
      2 C         140.2319  145.0968  159.7213 C.3     1  UNL1        0.0510
      3 C         140.5928  145.1922  158.2685 C.2     1  UNL1       -0.0044
      4 C         141.5809  144.2314  157.6765 C.2     1  UNL1        0.0689
      5 N         141.7400  144.5669  156.2232 N.2     1  UNL1       -0.2526
      6 C         140.8502  145.7351  155.9170 C.2     1  UNL1        0.0627
      7 C         140.5941  146.4968  154.6504 C.3     1  UNL1        0.0717
      8 C         139.6289  147.6449  154.6480 C.2     1  UNL1       -0.0198
      9 C         138.9199  148.0314  155.9121 C.2     1  UNL1       -0.0042
     10 C         139.1760  147.2697  157.1786 C.2     1  UNL1        0.0006
     11 C         140.1412  146.1215  157.1811 C.2     1  UNL1        0.0111
     12 C         142.2080  143.1751  158.5373 C.3     1  UNL1        0.0949
     13 N         141.8471  143.0797  159.9901 N.3     1  UNL1       -0.2887
     14 H         142.7141  143.1872  160.5165 H       1  UNL1        0.1239
     15 C         140.0496  143.0562  164.2483 C.ar    1  UNL1        0.0770
     16 C         139.8358  144.5402  164.2927 C.ar    1  UNL1        0.1171
     17 N         140.1130  145.0896  162.9247 N.ar    1  UNL1       -0.2282
     18 C         140.4981  143.9451  162.0349 C.ar    1  UNL1        0.1318
     19 N         140.4590  142.6884  162.8529 N.ar    1  UNL1       -0.3397
     20 H         140.6657  141.7814  162.5305 H       1  UNL1        0.1671
     21 C         140.3815  141.4457  167.8603 C.ar    1  UNL1        0.1469
     22 C         139.5507  140.2076  167.6960 C.ar    1  UNL1        0.0372
     23 C         138.8862  139.9191  166.3825 C.ar    1  UNL1        0.0032
     24 C         139.0526  140.8686  165.2334 C.ar    1  UNL1        0.0017
     25 C         139.8833  142.1067  165.3976 C.ar    1  UNL1        0.0202
     26 C         140.5478  142.3952  166.7111 C.ar    1  UNL1        0.0387
     27 O         141.0459  141.7342  169.1738 O.3     1  UNL1       -0.4045
     28 F         141.1231  144.5406  170.2313 F       1  UNL1       -0.1328
     29 C         141.0845  143.1374  169.7026 C.3     1  UNL1        0.5753
     30 F         139.6019  143.0941  169.9257 F       1  UNL1       -0.1328
     31 F         142.5672  143.1807  169.4794 F       1  UNL1       -0.1328
     32 C         143.1961  142.2143  157.9453 C.3     1  UNL1        0.0252
     33 C         144.6223  142.6334  157.7451 C.3     1  UNL1        0.0339
     34 C         145.6104  141.6725  157.1531 C.3     1  UNL1        0.1422
     35 O         145.1722  140.2925  156.7613 O.3     1  UNL1       -0.3538
     36 C         143.7459  139.8733  156.9615 C.3     1  UNL1        0.1422
     37 C         142.7579  140.8342  157.5535 C.3     1  UNL1        0.0339
@<TRIPOS>BOND
     1    28    29    1
     2    29    30    1
     3    29    31    1
     4    29    27    1
     5    27    21    1
     6    21    22   ar
     7    22    23   ar
     8    23    24   ar
     9    24    25   ar
    10    25    15    1
    11    15    16   ar
    12    16    17   ar
    13    17    18   ar
    14     1    18    1
    15     1     2    1
    16     2     3    1
    17     3     4    2
    18     4     5    1
    19     5     6    2
    20     6     7    1
    21     7     8    1
    22     8     9    2
    23     9    10    1
    24    10    11    2
    25     4    12    1
    26    12    32    1
    27    32    33    1
    28    33    34    1
    29    34    35    1
    30    35    36    1
    31    36    37    1
    32    12    13    1
    33    18    19   ar
    34    25    26   ar
    35    26    21   ar
    36    19    15   ar
    37    13     1    1
    38    11     3    1
    39    37    32    1
    40    11     6    1
    41    13    14    1
    42    19    20    1
@<TRIPOS>MOLECULE
*****
 37 42 0 0 0
SMALL
GASTEIGER

@<TRIPOS>ATOM
      1 C         142.1428  139.9597  160.6249 C.3     1  UNL1        0.1161
      2 C         142.5787  139.3272  161.9133 C.3     1  UNL1        0.0510
      3 C         142.2607  139.9913  163.2201 C.2     1  UNL1       -0.0044
      4 C         141.5067  141.2879  163.2385 C.2     1  UNL1        0.0689
      5 N         141.3385  141.7059  164.6692 N.2     1  UNL1       -0.2526
      6 C         141.9884  140.6677  165.5351 C.2     1  UNL1        0.0627
      7 C         142.1349  140.5504  167.0232 C.3     1  UNL1        0.0717
      8 C         142.8514  139.3733  167.6158 C.2     1  UNL1       -0.0198
      9 C         143.4213  138.3136  166.7202 C.2     1  UNL1       -0.0042
     10 C         143.2748  138.4309  165.2320 C.2     1  UNL1        0.0006
     11 C         142.5584  139.6080  164.6394 C.2     1  UNL1        0.0111
     12 C         141.0708  141.9204  161.9501 C.3     1  UNL1        0.0949
     13 N         141.3888  141.2563  160.6433 N.3     1  UNL1       -0.2887
     14 H         141.9366  141.9232  160.0997 H       1  UNL1        0.1239
     15 C         142.6244  137.6425  157.5485 C.ar    1  UNL1        0.0770
     16 C         143.2761  138.9043  157.0658 C.ar    1  UNL1        0.1171
     17 N         143.1751  139.9259  158.1595 N.ar    1  UNL1       -0.2282
     18 C         142.4608  139.2955  159.3181 C.ar    1  UNL1        0.1318
     19 N         142.1205  137.8842  158.9405 N.ar    1  UNL1       -0.3397
     20 H         141.6491  137.2313  159.5069 H       1  UNL1        0.1671
     21 C         143.4492  134.0439  156.0927 C.ar    1  UNL1        0.1469
     22 C         142.2468  133.8054  155.2281 C.ar    1  UNL1        0.0372
     23 C         141.1703  134.8459  155.1371 C.ar    1  UNL1        0.0032
     24 C         141.2962  136.1249  155.9105 C.ar    1  UNL1        0.0017
     25 C         142.4985  136.3634  156.7750 C.ar    1  UNL1        0.0202
     26 C         143.5751  135.3229  156.8661 C.ar    1  UNL1        0.0387
     27 O         144.5258  133.0033  156.1837 O.3     1  UNL1       -0.4045
     28 F         144.5017  131.0123  158.4277 F       1  UNL1       -0.1328
     29 C         144.5137  132.0078  157.3057 C.3     1  UNL1        0.5753
     30 F         145.5534  132.8110  158.0295 F       1  UNL1       -0.1328
     31 F         143.4740  131.2046  156.5819 F       1  UNL1       -0.1328
     32 C         140.3168  143.2170  161.9685 C.3     1  UNL1        0.0252
     33 C         140.8952  144.4304  161.3030 C.3     1  UNL1        0.0339
     34 C         140.1412  145.7270  161.3214 C.3     1  UNL1        0.1422
     35 O         138.8088  145.8102  162.0054 O.3     1  UNL1       -0.3538
     36 C         138.2303  144.5967  162.6709 C.3     1  UNL1        0.1422
     37 C         138.9843  143.3002  162.6525 C.3     1  UNL1        0.0339
@<TRIPOS>BOND
     1    28    29    1
     2    29    30    1
     3    29    31    1
     4    29    27    1
     5    27    21    1
     6    21    22   ar
     7    22    23   ar
     8    23    24   ar
     9    24    25   ar
    10    25    15    1
    11    15    16   ar
    12    16    17   ar
    13    17    18   ar
    14     1    18    1
    15     1     2    1
    16     2     3    1
    17     3     4    2
    18     4     5    1
    19     5     6    2
    20     6     7    1
    21     7     8    1
    22     8     9    2
    23     9    10    1
    24    10    11    2
    25     4    12    1
    26    12    32    1
    27    32    33    1
    28    33    34    1
    29    34    35    1
    30    35    36    1
    31    36    37    1
    32    12    13    1
    33    18    19   ar
    34    25    26   ar
    35    26    21   ar
    36    19    15   ar
    37    13     1    1
    38    11     3    1
    39    37    32    1
    40    11     6    1
    41    13    14    1
    42    19    20    1
@<TRIPOS>MOLECULE
*****
 37 42 0 0 0
SMALL
GASTEIGER

@<TRIPOS>ATOM
      1 C         140.0261  136.8567  155.2884 C.3     1  UNL1        0.1161
      2 C         140.5787  135.5080  154.9341 C.3     1  UNL1        0.0510
      3 C         141.8079  134.9960  155.6247 C.2     1  UNL1       -0.0044
      4 C         142.4845  135.8328  156.6696 C.2     1  UNL1        0.0689
      5 N         143.6720  135.0697  157.1772 N.2     1  UNL1       -0.2526
      6 C         143.7292  133.7613  156.4459 C.2     1  UNL1        0.0627
      7 C         144.6816  132.6055  156.5298 C.3     1  UNL1        0.0717
      8 C         144.4819  131.4041  155.6541 C.2     1  UNL1       -0.0198
      9 C         143.3298  131.3586  154.6946 C.2     1  UNL1       -0.0042
     10 C         142.3775  132.5144  154.6107 C.2     1  UNL1        0.0006
     11 C         142.5772  133.7157  155.4864 C.2     1  UNL1        0.0111
     12 C         141.9319  137.1816  157.0240 C.3     1  UNL1        0.0949
     13 N         140.7027  137.6935  156.3334 N.3     1  UNL1       -0.2887
     14 H         140.9614  138.5723  155.8848 H       1  UNL1        0.1239
     15 C         136.7829  138.6297  154.1038 C.ar    1  UNL1        0.0770
     16 C         137.0278  137.6832  152.9662 C.ar    1  UNL1        0.1171
     17 N         138.2725  136.9038  153.2715 N.ar    1  UNL1       -0.2282
     18 C         138.7969  137.3687  154.5977 C.ar    1  UNL1        0.1318
     19 N         137.8763  138.4354  155.1121 N.ar    1  UNL1       -0.3397
     20 H         137.9728  138.9224  155.9623 H       1  UNL1        0.1671
     21 C         133.6464  140.5824  155.5527 C.ar    1  UNL1        0.1469
     22 C         133.3678  141.5415  154.4335 C.ar    1  UNL1        0.0372
     23 C         134.2275  141.5299  153.2044 C.ar    1  UNL1        0.0032
     24 C         135.3659  140.5594  153.0945 C.ar    1  UNL1        0.0017
     25 C         135.6445  139.6003  154.2137 C.ar    1  UNL1        0.0202
     26 C         134.7848  139.6119  155.4428 C.ar    1  UNL1        0.0387
     27 O         132.7866  140.5940  156.7818 O.3     1  UNL1       -0.4045
     28 F         132.1510  138.0235  158.1920 F       1  UNL1       -0.1328
     29 C         132.4688  139.3088  157.4869 C.3     1  UNL1        0.5753
     30 F         131.3692  139.0407  156.5026 F       1  UNL1       -0.1328
     31 F         133.5685  139.5769  158.4712 F       1  UNL1       -0.1328
     32 C         142.6085  138.0184  158.0689 C.3     1  UNL1        0.0252
     33 C         142.7456  137.5018  159.4704 C.3     1  UNL1        0.0339
     34 C         143.4223  138.3387  160.5154 C.3     1  UNL1        0.1422
     35 O         143.9618  139.6921  160.1588 O.3     1  UNL1       -0.3538
     36 C         143.8246  140.2087  158.7572 C.3     1  UNL1        0.1422
     37 C         143.1480  139.3719  157.7124 C.3     1  UNL1        0.0339
@<TRIPOS>BOND
     1    28    29    1
     2    29    30    1
     3    29    31    1
     4    29    27    1
     5    27    21    1
     6    21    22   ar
     7    22    23   ar
     8    23    24   ar
     9    24    25   ar
    10    25    15    1
    11    15    16   ar
    12    16    17   ar
    13    17    18   ar
    14     1    18    1
    15     1     2    1
    16     2     3    1
    17     3     4    2
    18     4     5    1
    19     5     6    2
    20     6     7    1
    21     7     8    1
    22     8     9    2
    23     9    10    1
    24    10    11    2
    25     4    12    1
    26    12    32    1
    27    32    33    1
    28    33    34    1
    29    34    35    1
    30    35    36    1
    31    36    37    1
    32    12    13    1
    33    18    19   ar
    34    25    26   ar
    35    26    21   ar
    36    19    15   ar
    37    13     1    1
    38    11     3    1
    39    37    32    1
    40    11     6    1
    41    13    14    1
    42    19    20    1
@<TRIPOS>MOLECULE
*****
 37 42 0 0 0
SMALL
GASTEIGER

@<TRIPOS>ATOM
      1 C         142.2256  137.6463  157.2893 C.3     1  UNL1        0.1161
      2 C         142.9971  136.3616  157.3569 C.3     1  UNL1        0.0510
      3 C         142.6548  135.2317  156.4317 C.2     1  UNL1       -0.0044
      4 C         141.5412  135.3865  155.4388 C.2     1  UNL1        0.0689
      5 N         141.4328  134.1085  154.6610 N.2     1  UNL1       -0.2526
      6 C         142.4793  133.1638  155.1732 C.2     1  UNL1        0.0627
      7 C         142.8421  131.7613  154.7845 C.3     1  UNL1        0.0717
      8 C         143.9603  131.0529  155.4902 C.2     1  UNL1       -0.0198
      9 C         144.7156  131.7471  156.5846 C.2     1  UNL1       -0.0042
     10 C         144.3528  133.1497  156.9732 C.2     1  UNL1        0.0006
     11 C         143.2346  133.8580  156.2676 C.2     1  UNL1        0.0111
     12 C         140.7698  136.6712  155.3711 C.3     1  UNL1        0.0949
     13 N         141.1120  137.8011  156.2964 N.3     1  UNL1       -0.2887
     14 H         140.2685  138.0102  156.8303 H       1  UNL1        0.1239
     15 C         143.4328  140.0324  160.1027 C.ar    1  UNL1        0.0770
     16 C         142.7565  140.9974  159.1745 C.ar    1  UNL1        0.1171
     17 N         142.2220  140.2210  158.0077 N.ar    1  UNL1       -0.2282
     18 C         142.5679  138.7762  158.2147 C.ar    1  UNL1        0.1318
     19 N         143.3162  138.6596  159.5094 N.ar    1  UNL1       -0.3397
     20 H         143.6689  137.8281  159.9011 H       1  UNL1        0.1671
     21 C         144.7772  139.7450  163.8255 C.ar    1  UNL1        0.1469
     22 C         145.4560  141.0730  163.9851 C.ar    1  UNL1        0.0372
     23 C         145.4605  142.0542  162.8505 C.ar    1  UNL1        0.0032
     24 C         144.7861  141.7073  161.5564 C.ar    1  UNL1        0.0017
     25 C         144.1072  140.3793  161.3969 C.ar    1  UNL1        0.0202
     26 C         144.1027  139.3981  162.5314 C.ar    1  UNL1        0.0387
     27 O         144.7727  138.7638  164.9602 O.3     1  UNL1       -0.4045
     28 F         142.5138  138.7637  166.9343 F       1  UNL1       -0.1328
     29 C         143.6433  138.7638  165.9472 C.3     1  UNL1        0.5753
     30 F         144.2110  137.5367  166.5968 F       1  UNL1       -0.1328
     31 F         143.0756  139.9909  165.2977 F       1  UNL1       -0.1328
     32 C         139.6562  136.8259  154.3782 C.3     1  UNL1        0.0252
     33 C         138.3538  137.4380  154.8013 C.3     1  UNL1        0.0339
     34 C         137.2402  137.5928  153.8084 C.3     1  UNL1        0.1422
     35 O         137.4290  137.1354  152.3923 O.3     1  UNL1       -0.3538
     36 C         138.7314  136.5233  151.9692 C.3     1  UNL1        0.1422
     37 C         139.8449  136.3686  152.9621 C.3     1  UNL1        0.0339
@<TRIPOS>BOND
     1    28    29    1
     2    29    30    1
     3    29    31    1
     4    29    27    1
     5    27    21    1
     6    21    22   ar
     7    22    23   ar
     8    23    24   ar
     9    24    25   ar
    10    25    15    1
    11    15    16   ar
    12    16    17   ar
    13    17    18   ar
    14     1    18    1
    15     1     2    1
    16     2     3    1
    17     3     4    2
    18     4     5    1
    19     5     6    2
    20     6     7    1
    21     7     8    1
    22     8     9    2
    23     9    10    1
    24    10    11    2
    25     4    12    1
    26    12    32    1
    27    32    33    1
    28    33    34    1
    29    34    35    1
    30    35    36    1
    31    36    37    1
    32    12    13    1
    33    18    19   ar
    34    25    26   ar
    35    26    21   ar
    36    19    15   ar
    37    13     1    1
    38    11     3    1
    39    37    32    1
    40    11     6    1
    41    13    14    1
    42    19    20    1
@<TRIPOS>MOLECULE
*****
 37 42 0 0 0
SMALL
GASTEIGER

@<TRIPOS>ATOM
      1 C         142.0273  139.6241  161.0780 C.3     1  UNL1        0.1161
      2 C         141.0599  138.8516  161.9251 C.3     1  UNL1        0.0510
      3 C         140.7084  139.3415  163.2986 C.2     1  UNL1       -0.0044
      4 C         141.3243  140.6039  163.8249 C.2     1  UNL1        0.0689
      5 N         140.7904  140.8389  165.2069 N.2     1  UNL1       -0.2526
      6 C         139.8446  139.7217  165.5346 C.2     1  UNL1        0.0627
      7 C         139.0230  139.4275  166.7546 C.3     1  UNL1        0.0717
      8 C         138.1508  138.2079  166.7952 C.2     1  UNL1       -0.0198
      9 C         138.1001  137.2825  165.6158 C.2     1  UNL1       -0.0042
     10 C         138.9217  137.5766  164.3958 C.2     1  UNL1        0.0006
     11 C         139.7940  138.7962  164.3552 C.2     1  UNL1        0.0111
     12 C         142.2916  141.3764  162.9778 C.3     1  UNL1        0.0949
     13 N         142.6431  140.8865  161.6044 N.3     1  UNL1       -0.2887
     14 H         143.6537  140.7492  161.5904 H       1  UNL1        0.1239
     15 C         142.7908  137.6743  157.8098 C.ar    1  UNL1        0.0770
     16 C         143.0484  139.0857  157.3722 C.ar    1  UNL1        0.1171
     17 N         142.7937  139.9879  158.5432 N.ar    1  UNL1       -0.2282
     18 C         142.3787  139.1341  159.7045 C.ar    1  UNL1        0.1318
     19 N         142.3769  137.7042  159.2513 N.ar    1  UNL1       -0.3397
     20 H         142.1448  136.9226  159.8031 H       1  UNL1        0.1671
     21 C         143.3979  133.9038  156.7307 C.ar    1  UNL1        0.1469
     22 C         143.1895  133.9962  155.2481 C.ar    1  UNL1        0.0372
     23 C         142.8483  135.3146  154.6194 C.ar    1  UNL1        0.0032
     24 C         142.7154  136.5406  155.4733 C.ar    1  UNL1        0.0017
     25 C         142.9237  136.4482  156.9559 C.ar    1  UNL1        0.0202
     26 C         143.2650  135.1298  157.5846 C.ar    1  UNL1        0.0387
     27 O         143.7391  132.5853  157.3593 O.3     1  UNL1       -0.4045
     28 F         145.0191  130.4264  155.7159 F       1  UNL1       -0.1328
     29 C         144.3791  131.5059  156.5376 C.3     1  UNL1        0.5753
     30 F         145.7138  132.1693  156.7057 F       1  UNL1       -0.1328
     31 F         143.0443  130.8425  156.3696 F       1  UNL1       -0.1328
     32 C         142.9074  142.6388  163.5041 C.3     1  UNL1        0.0252
     33 C         142.5391  143.9614  162.9002 C.3     1  UNL1        0.0339
     34 C         143.1550  145.2239  163.4266 C.3     1  UNL1        0.1422
     35 O         144.1392  145.1636  164.5569 O.3     1  UNL1       -0.3538
     36 C         144.5076  143.8409  165.1609 C.3     1  UNL1        0.1422
     37 C         143.8917  142.5785  164.6345 C.3     1  UNL1        0.0339
@<TRIPOS>BOND
     1    28    29    1
     2    29    30    1
     3    29    31    1
     4    29    27    1
     5    27    21    1
     6    21    22   ar
     7    22    23   ar
     8    23    24   ar
     9    24    25   ar
    10    25    15    1
    11    15    16   ar
    12    16    17   ar
    13    17    18   ar
    14     1    18    1
    15     1     2    1
    16     2     3    1
    17     3     4    2
    18     4     5    1
    19     5     6    2
    20     6     7    1
    21     7     8    1
    22     8     9    2
    23     9    10    1
    24    10    11    2
    25     4    12    1
    26    12    32    1
    27    32    33    1
    28    33    34    1
    29    34    35    1
    30    35    36    1
    31    36    37    1
    32    12    13    1
    33    18    19   ar
    34    25    26   ar
    35    26    21   ar
    36    19    15   ar
    37    13     1    1
    38    11     3    1
    39    37    32    1
    40    11     6    1
    41    13    14    1
    42    19    20    1
@<TRIPOS>MOLECULE
*****
 37 42 0 0 0
SMALL
GASTEIGER

@<TRIPOS>ATOM
      1 C         141.2969  139.8092  160.1612 C.3     1  UNL1        0.1161
      2 C         140.7383  138.9441  161.2519 C.3     1  UNL1        0.0510
      3 C         140.1003  139.5726  162.4552 C.2     1  UNL1       -0.0044
      4 C         140.0208  141.0663  162.5677 C.2     1  UNL1        0.0689
      5 N         139.3391  141.3979  163.8621 N.2     1  UNL1       -0.2526
      6 C         138.9974  140.1092  164.5495 C.2     1  UNL1        0.0627
      7 C         138.3187  139.8172  165.8549 C.3     1  UNL1        0.0717
      8 C         138.1103  138.3972  166.2907 C.2     1  UNL1       -0.0198
      9 C         138.5808  137.2691  165.4212 C.2     1  UNL1       -0.0042
     10 C         139.2595  137.5611  164.1158 C.2     1  UNL1        0.0006
     11 C         139.4678  138.9811  163.6800 C.2     1  UNL1        0.0111
     12 C         140.5793  141.9314  161.4770 C.3     1  UNL1        0.0949
     13 N         141.2173  141.3029  160.2738 N.3     1  UNL1       -0.2887
     14 H         142.1745  141.6527  160.2315 H       1  UNL1        0.1239
     15 C         142.6513  137.5438  157.3154 C.ar    1  UNL1        0.0770
     16 C         143.1822  138.8829  156.8973 C.ar    1  UNL1        0.1171
     17 N         142.7394  139.8946  157.9125 N.ar    1  UNL1       -0.2282
     18 C         141.9349  139.1806  158.9579 C.ar    1  UNL1        0.1318
     19 N         141.8805  137.7278  158.5890 N.ar    1  UNL1       -0.3397
     20 H         141.4197  137.0194  159.0940 H       1  UNL1        0.1671
     21 C         143.6130  133.7629  156.5872 C.ar    1  UNL1        0.1469
     22 C         143.2637  133.6567  155.1324 C.ar    1  UNL1        0.0372
     23 C         142.7102  134.8462  154.4052 C.ar    1  UNL1        0.0032
     24 C         142.5061  136.1418  155.1329 C.ar    1  UNL1        0.0017
     25 C         142.8555  136.2480  156.5877 C.ar    1  UNL1        0.0202
     26 C         143.4089  135.0586  157.3149 C.ar    1  UNL1        0.0387
     27 O         144.1665  132.5734  157.3144 O.3     1  UNL1       -0.4045
     28 F         144.0574  129.8563  156.0472 F       1  UNL1       -0.1328
     29 C         144.1120  131.2149  156.6808 C.3     1  UNL1        0.5753
     30 F         142.7248  131.0204  157.2174 F       1  UNL1       -0.1328
     31 F         145.4991  131.4094  156.1443 F       1  UNL1       -0.1328
     32 C         140.4998  143.4251  161.5896 C.3     1  UNL1        0.0252
     33 C         140.0158  144.2400  160.4271 C.3     1  UNL1        0.0339
     34 C         139.9363  145.7338  160.5397 C.3     1  UNL1        0.1422
     35 O         140.3408  146.4124  161.8148 O.3     1  UNL1       -0.3538
     36 C         140.8248  145.5973  162.9773 C.3     1  UNL1        0.1422
     37 C         140.9043  144.1037  162.8647 C.3     1  UNL1        0.0339
@<TRIPOS>BOND
     1    28    29    1
     2    29    30    1
     3    29    31    1
     4    29    27    1
     5    27    21    1
     6    21    22   ar
     7    22    23   ar
     8    23    24   ar
     9    24    25   ar
    10    25    15    1
    11    15    16   ar
    12    16    17   ar
    13    17    18   ar
    14     1    18    1
    15     1     2    1
    16     2     3    1
    17     3     4    2
    18     4     5    1
    19     5     6    2
    20     6     7    1
    21     7     8    1
    22     8     9    2
    23     9    10    1
    24    10    11    2
    25     4    12    1
    26    12    32    1
    27    32    33    1
    28    33    34    1
    29    34    35    1
    30    35    36    1
    31    36    37    1
    32    12    13    1
    33    18    19   ar
    34    25    26   ar
    35    26    21   ar
    36    19    15   ar
    37    13     1    1
    38    11     3    1
    39    37    32    1
    40    11     6    1
    41    13    14    1
    42    19    20    1
@<TRIPOS>MOLECULE
*****
 37 42 0 0 0
SMALL
GASTEIGER

@<TRIPOS>ATOM
      1 C         142.0716  138.9318  158.4923 C.3     1  UNL1        0.1161
      2 C         141.8974  140.4104  158.3093 C.3     1  UNL1        0.0510
      3 C         141.3358  141.2430  159.4234 C.2     1  UNL1       -0.0044
      4 C         140.9484  140.5971  160.7206 C.2     1  UNL1        0.0689
      5 N         140.4247  141.6665  161.6327 N.2     1  UNL1       -0.2526
      6 C         140.4884  142.9734  160.8992 C.2     1  UNL1        0.0627
      7 C         140.1064  144.3680  161.2983 C.3     1  UNL1        0.0717
      8 C         140.2875  145.5008  160.3319 C.2     1  UNL1       -0.0198
      9 C         140.8507  145.2390  158.9665 C.2     1  UNL1       -0.0042
     10 C         141.2327  143.8445  158.5674 C.2     1  UNL1        0.0006
     11 C         141.0515  142.7117  159.5338 C.2     1  UNL1        0.0111
     12 C         141.1227  139.1185  160.9036 C.3     1  UNL1        0.0949
     13 N         141.6842  138.2859  159.7895 N.3     1  UNL1       -0.2887
     14 H         140.9834  137.5785  159.5685 H       1  UNL1        0.1239
     15 C         142.9875  136.2861  155.8040 C.ar    1  UNL1        0.0770
     16 C         144.0074  137.3496  155.5233 C.ar    1  UNL1        0.1171
     17 N         143.7884  138.4701  156.4962 N.ar    1  UNL1       -0.2282
     18 C         142.6333  138.0992  157.3781 C.ar    1  UNL1        0.1318
     19 N         142.1382  136.7494  156.9504 N.ar    1  UNL1       -0.3397
     20 H         141.3877  136.2544  157.3516 H       1  UNL1        0.1671
     21 C         143.2413  132.4241  154.9266 C.ar    1  UNL1        0.1469
     22 C         142.5519  132.3900  153.5949 C.ar    1  UNL1        0.0372
     23 C         142.0077  133.6546  152.9995 C.ar    1  UNL1        0.0032
     24 C         142.1529  134.9533  153.7358 C.ar    1  UNL1        0.0017
     25 C         142.8423  134.9874  155.0676 C.ar    1  UNL1        0.0202
     26 C         143.3865  133.7227  155.6630 C.ar    1  UNL1        0.0387
     27 O         143.7855  131.1593  155.5220 O.3     1  UNL1       -0.4045
     28 F         144.8567  131.1603  158.3243 F       1  UNL1       -0.1328
     29 C         144.3210  131.1598  156.9231 C.3     1  UNL1        0.5753
     30 F         145.6512  131.6309  156.4145 F       1  UNL1       -0.1328
     31 F         142.9909  130.6887  157.4317 F       1  UNL1       -0.1328
     32 C         140.7353  138.4725  162.2008 C.3     1  UNL1        0.0252
     33 C         141.7936  137.9217  163.1098 C.3     1  UNL1        0.0339
     34 C         141.4061  137.2757  164.4070 C.3     1  UNL1        0.1422
     35 O         139.9603  137.1806  164.7951 O.3     1  UNL1       -0.3538
     36 C         138.9020  137.7315  163.8861 C.3     1  UNL1        0.1422
     37 C         139.2894  138.3774  162.5890 C.3     1  UNL1        0.0339
@<TRIPOS>BOND
     1    28    29    1
     2    29    30    1
     3    29    31    1
     4    29    27    1
     5    27    21    1
     6    21    22   ar
     7    22    23   ar
     8    23    24   ar
     9    24    25   ar
    10    25    15    1
    11    15    16   ar
    12    16    17   ar
    13    17    18   ar
    14     1    18    1
    15     1     2    1
    16     2     3    1
    17     3     4    2
    18     4     5    1
    19     5     6    2
    20     6     7    1
    21     7     8    1
    22     8     9    2
    23     9    10    1
    24    10    11    2
    25     4    12    1
    26    12    32    1
    27    32    33    1
    28    33    34    1
    29    34    35    1
    30    35    36    1
    31    36    37    1
    32    12    13    1
    33    18    19   ar
    34    25    26   ar
    35    26    21   ar
    36    19    15   ar
    37    13     1    1
    38    11     3    1
    39    37    32    1
    40    11     6    1
    41    13    14    1
    42    19    20    1
