@<TRIPOS>MOLECULE
*****
 43 49 0 0 0
SMALL
GASTEIGER

@<TRIPOS>ATOM
      1 N         139.2167  142.2281  158.9162 N.am    1  UNL1       -0.2222
      2 C         139.3606  141.7165  160.3189 C.2     1  UNL1        0.3219
      3 O         138.9332  140.3663  160.8132 O.2     1  UNL1       -0.2512
      4 N         140.0071  142.7922  161.1406 N.am    1  UNL1       -0.1907
      5 C         140.2627  143.9686  160.2457 C.2     1  UNL1        0.2529
      6 O         140.8955  145.2658  160.6539 O.2     1  UNL1       -0.2724
      7 C         139.7742  143.6200  158.8709 C.3     1  UNL1        0.1391
      8 C         139.2438  143.1321  157.5554 C.3     1  UNL1        0.0449
      9 C         139.3025  144.0195  156.3475 C.3     1  UNL1        0.0746
     10 N         139.8917  145.3948  156.4552 N.3     1  UNL1       -0.2676
     11 C         140.4221  145.8826  157.7707 C.3     1  UNL1        0.0746
     12 C         140.3634  144.9952  158.9786 C.3     1  UNL1        0.0449
     13 C         136.5651  140.8796  156.2894 C.ar    1  UNL1        0.2293
     14 C         137.1617  141.6283  157.4442 C.ar    1  UNL1        0.0924
     15 C         138.6201  141.4793  157.7615 C.ar    1  UNL1        0.1453
     16 N         139.4820  140.5816  156.9240 N.ar    1  UNL1       -0.2084
     17 C         138.8854  139.8328  155.7694 C.ar    1  UNL1        0.2027
     18 N         137.4269  139.9818  155.4520 N.ar    1  UNL1       -0.1892
     19 C         134.1080  140.0851  156.5743 C.3     1  UNL1        0.2542
     20 O         135.1066  141.0285  155.9721 O.3     1  UNL1       -0.4560
     21 C         140.3395  142.7065  162.6007 C.ar    1  UNL1        0.0622
     22 C         139.6350  143.5940  163.5836 C.ar    1  UNL1        0.0154
     23 C         139.9675  143.5083  165.0438 C.ar    1  UNL1        0.0010
     24 C         141.0044  142.5352  165.5211 C.ar    1  UNL1       -0.0036
     25 C         141.7089  141.6476  164.5382 C.ar    1  UNL1        0.0010
     26 C         141.3764  141.7334  163.0780 C.ar    1  UNL1        0.0154
     27 C         141.3368  142.4495  166.9813 C.2     1  UNL1       -0.0176
     28 C         142.7599  142.2621  167.4168 C.2     1  UNL1       -0.0023
     29 C         143.0923  142.1764  168.8770 C.2     1  UNL1        0.0203
     30 C         142.0016  142.2782  169.9017 C.2     1  UNL1        0.1007
     31 N         142.0251  142.2291  171.4007 N.2     1  UNL1       -0.1482
     32 N         140.6164  142.3862  171.8917 N.2     1  UNL1       -0.1467
     33 C         139.7224  142.5324  170.6962 C.2     1  UNL1        0.1197
     34 C         140.5785  142.4656  169.4662 C.2     1  UNL1        0.0225
     35 C         140.2461  142.5513  168.0061 C.3     1  UNL1        0.0558
     36 C         139.9504  146.2822  155.2472 C.3     1  UNL1        0.1183
     37 C         139.5201  147.7156  155.3480 C.ar    1  UNL1        0.0712
     38 N         138.7271  148.1790  156.5339 N.ar    1  UNL1       -0.2471
     39 C         138.2967  149.6125  156.6346 C.ar    1  UNL1        0.0985
     40 C         138.6594  150.5824  155.5494 C.ar    1  UNL1        0.0203
     41 C         139.4524  150.1190  154.3635 C.ar    1  UNL1       -0.0015
     42 C         139.8827  148.6856  154.2627 C.ar    1  UNL1       -0.0069
     43 C         140.6757  148.2222  153.0768 C.3     1  UNL1        0.0323
@<TRIPOS>BOND
     1    19    20    1
     2    20    13    1
     3    13    14   ar
     4    14    15   ar
     5    15     1    1
     6     1     2   am
     7     2     3    2
     8     2     4   am
     9     4    21    1
    10    21    22   ar
    11    22    23   ar
    12    23    24   ar
    13    24    27    1
    14    27    28    2
    15    28    29    1
    16    29    30    2
    17    30    31    1
    18    31    32    2
    19    32    33    1
    20    33    34    2
    21    34    35    1
    22    24    25   ar
    23    25    26   ar
    24     4     5   am
    25     5     6    2
    26     5     7    1
    27     7     8    1
    28     8     9    1
    29     9    10    1
    30    10    36    1
    31    36    37    1
    32    37    38   ar
    33    38    39   ar
    34    39    40   ar
    35    40    41   ar
    36    41    42   ar
    37    42    43    1
    38    10    11    1
    39    11    12    1
    40    15    16   ar
    41    16    17   ar
    42    17    18   ar
    43    18    13   ar
    44     7     1    1
    45    42    37   ar
    46    26    21   ar
    47    12     7    1
    48    35    27    1
    49    34    30    1
@<TRIPOS>MOLECULE
*****
 43 49 0 0 0
SMALL
GASTEIGER

@<TRIPOS>ATOM
      1 N         140.3039  143.6512  158.9062 N.am    1  UNL1       -0.2222
      2 C         140.8664  143.9149  160.2716 C.2     1  UNL1        0.3219
      3 O         141.8389  144.9992  160.6301 O.2     1  UNL1       -0.2512
      4 N         140.2857  142.9038  161.2153 N.am    1  UNL1       -0.1907
      5 C         139.3643  142.0154  160.4333 C.2     1  UNL1        0.2529
      6 O         138.5710  140.8667  160.9819 O.2     1  UNL1       -0.2724
      7 C         139.3755  142.4772  159.0061 C.3     1  UNL1        0.1391
      8 C         139.4883  143.0499  157.6244 C.3     1  UNL1        0.0449
      9 C         138.7082  142.4442  156.4955 C.3     1  UNL1        0.0746
     10 N         137.8152  141.2658  156.7484 N.3     1  UNL1       -0.2676
     11 C         137.7024  140.6931  158.1301 C.3     1  UNL1        0.0746
     12 C         138.4825  141.2988  159.2590 C.3     1  UNL1        0.0449
     13 C         140.1210  146.4168  156.0658 C.ar    1  UNL1        0.2293
     14 C         139.8099  145.6424  157.3122 C.ar    1  UNL1        0.0924
     15 C         140.6150  144.4255  157.6598 C.ar    1  UNL1        0.1453
     16 N         141.7314  143.9830  156.7610 N.ar    1  UNL1       -0.2084
     17 C         142.0426  144.7573  155.5146 C.ar    1  UNL1        0.2027
     18 N         141.2374  145.9742  155.1670 N.ar    1  UNL1       -0.1892
     19 C         139.7305  148.5040  154.5689 C.3     1  UNL1        0.2542
     20 O         139.3159  147.6337  155.7181 O.3     1  UNL1       -0.4560
     21 C         140.5755  142.7996  162.6833 C.ar    1  UNL1        0.0622
     22 C         141.7694  142.0262  163.1590 C.ar    1  UNL1        0.0154
     23 C         142.0593  141.9220  164.6271 C.ar    1  UNL1        0.0010
     24 C         141.1552  142.5912  165.6194 C.ar    1  UNL1       -0.0036
     25 C         139.9612  143.3647  165.1437 C.ar    1  UNL1        0.0010
     26 C         139.6714  143.4689  163.6756 C.ar    1  UNL1        0.0154
     27 C         141.4450  142.4870  167.0875 C.2     1  UNL1       -0.0176
     28 C         142.8562  142.3048  167.5623 C.2     1  UNL1       -0.0023
     29 C         143.1460  142.2006  169.0303 C.2     1  UNL1        0.0203
     30 C         142.0246  142.2786  170.0235 C.2     1  UNL1        0.1007
     31 N         142.0041  142.2079  171.5217 N.2     1  UNL1       -0.1482
     32 N         140.5802  142.3463  171.9729 N.2     1  UNL1       -0.1467
     33 C         139.7208  142.5026  170.7535 C.2     1  UNL1        0.1197
     34 C         140.6134  142.4607  169.5487 C.2     1  UNL1        0.0225
     35 C         140.3236  142.5649  168.0807 C.3     1  UNL1        0.0558
     36 C         137.0350  140.6600  155.6194 C.3     1  UNL1        0.1183
     37 C         135.5355  140.6858  155.6453 C.ar    1  UNL1        0.0712
     38 N         134.7923  139.9908  156.7474 N.ar    1  UNL1       -0.2471
     39 C         133.2927  140.0166  156.7732 C.ar    1  UNL1        0.0985
     40 C         132.5364  140.7374  155.6971 C.ar    1  UNL1        0.0203
     41 C         133.2795  141.4325  154.5950 C.ar    1  UNL1       -0.0015
     42 C         134.7791  141.4067  154.5691 C.ar    1  UNL1       -0.0069
     43 C         135.5222  142.1018  153.4670 C.3     1  UNL1        0.0323
@<TRIPOS>BOND
     1    19    20    1
     2    20    13    1
     3    13    14   ar
     4    14    15   ar
     5    15     1    1
     6     1     2   am
     7     2     3    2
     8     2     4   am
     9     4    21    1
    10    21    22   ar
    11    22    23   ar
    12    23    24   ar
    13    24    27    1
    14    27    28    2
    15    28    29    1
    16    29    30    2
    17    30    31    1
    18    31    32    2
    19    32    33    1
    20    33    34    2
    21    34    35    1
    22    24    25   ar
    23    25    26   ar
    24     4     5   am
    25     5     6    2
    26     5     7    1
    27     7     8    1
    28     8     9    1
    29     9    10    1
    30    10    36    1
    31    36    37    1
    32    37    38   ar
    33    38    39   ar
    34    39    40   ar
    35    40    41   ar
    36    41    42   ar
    37    42    43    1
    38    10    11    1
    39    11    12    1
    40    15    16   ar
    41    16    17   ar
    42    17    18   ar
    43    18    13   ar
    44     7     1    1
    45    42    37   ar
    46    26    21   ar
    47    12     7    1
    48    35    27    1
    49    34    30    1
@<TRIPOS>MOLECULE
*****
 43 49 0 0 0
SMALL
GASTEIGER

@<TRIPOS>ATOM
      1 N         141.3065  143.8295  159.1161 N.am    1  UNL1       -0.2222
      2 C         140.9409  143.9364  160.5670 C.2     1  UNL1        0.3219
      3 O         139.7682  144.6847  161.1280 O.2     1  UNL1       -0.2512
      4 N         141.9540  143.1634  161.3584 N.am    1  UNL1       -0.1907
      5 C         142.9456  142.5789  160.3967 C.2     1  UNL1        0.2529
      6 O         144.1296  141.7314  160.7573 O.2     1  UNL1       -0.2724
      7 C         142.5454  142.9905  159.0108 C.3     1  UNL1        0.1391
      8 C         142.0249  143.4782  157.6913 C.3     1  UNL1        0.0449
      9 C         142.7384  143.1147  156.4230 C.3     1  UNL1        0.0746
     10 N         143.9725  142.2636  156.4741 N.3     1  UNL1       -0.2676
     11 C         144.4931  141.7759  157.7936 C.3     1  UNL1        0.0746
     12 C         143.7795  142.1394  159.0620 C.3     1  UNL1        0.0449
     13 C         138.7170  144.3186  156.1488 C.ar    1  UNL1        0.2293
     14 C         139.4600  143.6958  157.2934 C.ar    1  UNL1        0.0924
     15 C         140.5635  144.4523  157.9715 C.ar    1  UNL1        0.1453
     16 N         140.9240  145.8316  157.5051 N.ar    1  UNL1       -0.2084
     17 C         140.1811  146.4545  156.3606 C.ar    1  UNL1        0.2027
     18 N         139.0775  145.6979  155.6824 N.ar    1  UNL1       -0.1892
     19 C         136.9683  142.3972  156.1610 C.3     1  UNL1        0.2542
     20 O         137.6135  143.5621  155.4705 O.3     1  UNL1       -0.4560
     21 C         141.9722  143.0031  162.8496 C.ar    1  UNL1        0.0622
     22 C         140.7795  142.4313  163.5571 C.ar    1  UNL1        0.0154
     23 C         140.7978  142.2710  165.0485 C.ar    1  UNL1        0.0010
     24 C         142.0087  142.6825  165.8323 C.ar    1  UNL1       -0.0036
     25 C         143.2014  143.2544  165.1248 C.ar    1  UNL1        0.0010
     26 C         143.1831  143.4146  163.6335 C.ar    1  UNL1        0.0154
     27 C         142.0269  142.5223  167.3236 C.2     1  UNL1       -0.0176
     28 C         143.3195  142.2451  168.0324 C.2     1  UNL1       -0.0023
     29 C         143.3377  142.0849  169.5237 C.2     1  UNL1        0.0203
     30 C         142.0633  142.2017  170.3061 C.2     1  UNL1        0.1007
     31 N         141.7731  142.0922  171.7737 N.2     1  UNL1       -0.1482
     32 N         140.3010  142.3017  171.9720 N.2     1  UNL1       -0.1467
     33 C         139.6815  142.5406  170.6269 C.2     1  UNL1        0.1197
     34 C         140.7707  142.4789  169.5973 C.2     1  UNL1        0.0225
     35 C         140.7524  142.6391  168.1061 C.3     1  UNL1        0.0558
     36 C         144.6860  141.9001  155.2057 C.3     1  UNL1        0.1183
     37 C         145.4983  142.9315  154.4802 C.ar    1  UNL1        0.0712
     38 N         144.8177  143.9461  153.6100 N.ar    1  UNL1       -0.2471
     39 C         145.6301  144.9775  152.8844 C.ar    1  UNL1        0.0985
     40 C         147.1230  144.9942  153.0291 C.ar    1  UNL1        0.0203
     41 C         147.8036  143.9795  153.8993 C.ar    1  UNL1       -0.0015
     42 C         146.9913  142.9482  154.6248 C.ar    1  UNL1       -0.0069
     43 C         147.6718  141.9335  155.4950 C.3     1  UNL1        0.0323
@<TRIPOS>BOND
     1    19    20    1
     2    20    13    1
     3    13    14   ar
     4    14    15   ar
     5    15     1    1
     6     1     2   am
     7     2     3    2
     8     2     4   am
     9     4    21    1
    10    21    22   ar
    11    22    23   ar
    12    23    24   ar
    13    24    27    1
    14    27    28    2
    15    28    29    1
    16    29    30    2
    17    30    31    1
    18    31    32    2
    19    32    33    1
    20    33    34    2
    21    34    35    1
    22    24    25   ar
    23    25    26   ar
    24     4     5   am
    25     5     6    2
    26     5     7    1
    27     7     8    1
    28     8     9    1
    29     9    10    1
    30    10    36    1
    31    36    37    1
    32    37    38   ar
    33    38    39   ar
    34    39    40   ar
    35    40    41   ar
    36    41    42   ar
    37    42    43    1
    38    10    11    1
    39    11    12    1
    40    15    16   ar
    41    16    17   ar
    42    17    18   ar
    43    18    13   ar
    44     7     1    1
    45    42    37   ar
    46    26    21   ar
    47    12     7    1
    48    35    27    1
    49    34    30    1
@<TRIPOS>MOLECULE
*****
 43 49 0 0 0
SMALL
GASTEIGER

@<TRIPOS>ATOM
      1 N         138.6575  140.8828  159.0481 N.am    1  UNL1       -0.2222
      2 C         138.4760  141.2991  160.4778 C.2     1  UNL1        0.3219
      3 O         137.5175  142.3386  160.9786 O.2     1  UNL1       -0.2512
      4 N         139.4214  140.4934  161.3187 N.am    1  UNL1       -0.1907
      5 C         140.1871  139.5792  160.4088 C.2     1  UNL1        0.2529
      6 O         141.2400  138.5967  160.8284 O.2     1  UNL1       -0.2724
      7 C         139.7150  139.8198  159.0055 C.3     1  UNL1        0.1391
      8 C         139.1452  140.1679  157.6623 C.3     1  UNL1        0.0449
      9 C         139.6432  139.4684  156.4324 C.3     1  UNL1        0.0746
     10 N         140.7108  138.4209  156.5456 N.3     1  UNL1       -0.2676
     11 C         141.2806  138.0729  157.8888 C.3     1  UNL1        0.0746
     12 C         140.7826  138.7723  159.1187 C.3     1  UNL1        0.0449
     13 C         137.6079  143.2701  156.0567 C.ar    1  UNL1        0.2293
     14 C         138.3531  142.7200  157.2365 C.ar    1  UNL1        0.0924
     15 C         137.9122  141.4330  157.8683 C.ar    1  UNL1        0.1453
     16 N         136.7262  140.6961  157.3203 N.ar    1  UNL1       -0.2084
     17 C         135.9810  141.2461  156.1406 C.ar    1  UNL1        0.2027
     18 N         136.4218  142.5332  155.5087 N.ar    1  UNL1       -0.1892
     19 C         139.2676  145.2653  155.9373 C.3     1  UNL1        0.2542
     20 O         138.0486  144.5571  155.4248 O.3     1  UNL1       -0.4560
     21 C         139.5743  140.5856  162.8080 C.ar    1  UNL1        0.0622
     22 C         140.8496  141.1080  163.4001 C.ar    1  UNL1        0.0154
     23 C         141.0025  141.2002  164.8895 C.ar    1  UNL1        0.0010
     24 C         139.8799  140.7702  165.7867 C.ar    1  UNL1       -0.0036
     25 C         138.6045  140.2479  165.1946 C.ar    1  UNL1        0.0010
     26 C         138.4518  140.1556  163.7052 C.ar    1  UNL1        0.0154
     27 C         140.0328  140.8625  167.2761 C.2     1  UNL1       -0.0176
     28 C         139.2120  139.9812  168.1703 C.2     1  UNL1       -0.0023
     29 C         139.3649  140.0735  169.6596 C.2     1  UNL1        0.0203
     30 C         140.3385  141.0471  170.2546 C.2     1  UNL1        0.1007
     31 N         140.7033  141.3600  171.6756 N.2     1  UNL1       -0.1482
     32 N         141.7497  142.4348  171.6595 N.2     1  UNL1       -0.1467
     33 C         142.0314  142.7861  170.2288 C.2     1  UNL1        0.1197
     34 C         141.1593  141.9284  169.3604 C.2     1  UNL1        0.0225
     35 C         141.0064  141.8362  167.8712 C.3     1  UNL1        0.0558
     36 C         141.2087  137.7214  155.3156 C.3     1  UNL1        0.1183
     37 C         141.8749  136.3826  155.4320 C.ar    1  UNL1        0.0712
     38 N         141.0468  135.1321  155.4535 N.ar    1  UNL1       -0.2471
     39 C         141.7131  133.7932  155.5699 C.ar    1  UNL1        0.0985
     40 C         143.2074  133.7048  155.6648 C.ar    1  UNL1        0.0203
     41 C         144.0356  134.9553  155.6434 C.ar    1  UNL1       -0.0015
     42 C         143.3694  136.2941  155.5270 C.ar    1  UNL1       -0.0069
     43 C         144.1975  137.5446  155.5055 C.3     1  UNL1        0.0323
@<TRIPOS>BOND
     1    19    20    1
     2    20    13    1
     3    13    14   ar
     4    14    15   ar
     5    15     1    1
     6     1     2   am
     7     2     3    2
     8     2     4   am
     9     4    21    1
    10    21    22   ar
    11    22    23   ar
    12    23    24   ar
    13    24    27    1
    14    27    28    2
    15    28    29    1
    16    29    30    2
    17    30    31    1
    18    31    32    2
    19    32    33    1
    20    33    34    2
    21    34    35    1
    22    24    25   ar
    23    25    26   ar
    24     4     5   am
    25     5     6    2
    26     5     7    1
    27     7     8    1
    28     8     9    1
    29     9    10    1
    30    10    36    1
    31    36    37    1
    32    37    38   ar
    33    38    39   ar
    34    39    40   ar
    35    40    41   ar
    36    41    42   ar
    37    42    43    1
    38    10    11    1
    39    11    12    1
    40    15    16   ar
    41    16    17   ar
    42    17    18   ar
    43    18    13   ar
    44     7     1    1
    45    42    37   ar
    46    26    21   ar
    47    12     7    1
    48    35    27    1
    49    34    30    1
@<TRIPOS>MOLECULE
*****
 43 49 0 0 0
SMALL
GASTEIGER

@<TRIPOS>ATOM
      1 N         142.2554  138.9185  159.3036 N.am    1  UNL1       -0.2222
      2 C         141.9016  138.6601  160.7383 C.2     1  UNL1        0.3219
      3 O         141.1545  137.4692  161.2614 O.2     1  UNL1       -0.2512
      4 N         142.4261  139.8017  161.5579 N.am    1  UNL1       -0.1907
      5 C         143.1039  140.7657  160.6298 C.2     1  UNL1        0.2529
      6 O         143.7703  142.0499  161.0254 O.2     1  UNL1       -0.2724
      7 C         142.9985  140.2198  159.2366 C.3     1  UNL1        0.1391
      8 C         142.8155  139.5525  157.9057 C.3     1  UNL1        0.0449
      9 C         143.3578  140.1951  156.6636 C.3     1  UNL1        0.0746
     10 N         144.0832  141.5051  156.7524 N.3     1  UNL1       -0.2676
     11 C         144.2662  142.1724  158.0832 C.3     1  UNL1        0.0746
     12 C         143.7239  141.5298  159.3253 C.3     1  UNL1        0.0449
     13 C         140.2200  137.1797  156.3738 C.ar    1  UNL1        0.2293
     14 C         140.5512  138.0668  157.5372 C.ar    1  UNL1        0.0924
     15 C         141.9242  138.0314  158.1403 C.ar    1  UNL1        0.1453
     16 N         142.9659  137.1089  157.5801 N.ar    1  UNL1       -0.2084
     17 C         142.6348  136.2218  156.4168 C.ar    1  UNL1        0.2027
     18 N         141.2618  136.2572  155.8137 N.ar    1  UNL1       -0.1892
     19 C         138.6839  137.2663  154.2805 C.3     1  UNL1        0.2542
     20 O         138.8472  137.2149  155.7707 O.3     1  UNL1       -0.4560
     21 C         142.2955  139.9529  163.0444 C.ar    1  UNL1        0.0622
     22 C         143.1461  139.1234  163.9602 C.ar    1  UNL1        0.0154
     23 C         143.0156  139.2746  165.4468 C.ar    1  UNL1        0.0010
     24 C         142.0345  140.2551  166.0178 C.ar    1  UNL1       -0.0036
     25 C         141.1839  141.0846  165.1020 C.ar    1  UNL1        0.0010
     26 C         141.3145  140.9334  163.6154 C.ar    1  UNL1        0.0154
     27 C         141.9040  140.4063  167.5044 C.2     1  UNL1       -0.0176
     28 C         142.6477  139.4803  168.4206 C.2     1  UNL1       -0.0023
     29 C         142.5171  139.6314  169.9073 C.2     1  UNL1        0.0203
     30 C         141.6429  140.7086  170.4776 C.2     1  UNL1        0.1007
     31 N         141.3210  141.0968  171.8903 N.2     1  UNL1       -0.1482
     32 N         140.3783  142.2629  171.8473 N.2     1  UNL1       -0.1467
     33 C         140.1176  142.5953  170.4080 C.2     1  UNL1        0.1197
     34 C         140.8992  141.6346  169.5615 C.2     1  UNL1        0.0225
     35 C         141.0297  141.4835  168.0749 C.3     1  UNL1        0.0558
     36 C         144.6256  142.1477  155.5102 C.3     1  UNL1        0.1183
     37 C         146.0856  142.0367  155.1846 C.ar    1  UNL1        0.0712
     38 N         147.1077  142.1383  156.2778 N.ar    1  UNL1       -0.2471
     39 C         148.5677  142.0273  155.9521 C.ar    1  UNL1        0.0985
     40 C         149.0057  141.8148  154.5333 C.ar    1  UNL1        0.0203
     41 C         147.9836  141.7132  153.4402 C.ar    1  UNL1       -0.0015
     42 C         146.5236  141.8242  153.7658 C.ar    1  UNL1       -0.0069
     43 C         145.5015  141.7226  152.6726 C.3     1  UNL1        0.0323
@<TRIPOS>BOND
     1    19    20    1
     2    20    13    1
     3    13    14   ar
     4    14    15   ar
     5    15     1    1
     6     1     2   am
     7     2     3    2
     8     2     4   am
     9     4    21    1
    10    21    22   ar
    11    22    23   ar
    12    23    24   ar
    13    24    27    1
    14    27    28    2
    15    28    29    1
    16    29    30    2
    17    30    31    1
    18    31    32    2
    19    32    33    1
    20    33    34    2
    21    34    35    1
    22    24    25   ar
    23    25    26   ar
    24     4     5   am
    25     5     6    2
    26     5     7    1
    27     7     8    1
    28     8     9    1
    29     9    10    1
    30    10    36    1
    31    36    37    1
    32    37    38   ar
    33    38    39   ar
    34    39    40   ar
    35    40    41   ar
    36    41    42   ar
    37    42    43    1
    38    10    11    1
    39    11    12    1
    40    15    16   ar
    41    16    17   ar
    42    17    18   ar
    43    18    13   ar
    44     7     1    1
    45    42    37   ar
    46    26    21   ar
    47    12     7    1
    48    35    27    1
    49    34    30    1
@<TRIPOS>MOLECULE
*****
 43 49 0 0 0
SMALL
GASTEIGER

@<TRIPOS>ATOM
      1 N         142.3491  138.9989  159.2776 N.am    1  UNL1       -0.2222
      2 C         141.9831  138.7311  160.7074 C.2     1  UNL1        0.3219
      3 O         141.2331  137.5360  161.2166 O.2     1  UNL1       -0.2512
      4 N         142.4989  139.8682  161.5387 N.am    1  UNL1       -0.1907
      5 C         143.1836  140.8388  160.6227 C.2     1  UNL1        0.2529
      6 O         143.8448  142.1214  161.0321 O.2     1  UNL1       -0.2724
      7 C         143.0910  140.3016  159.2252 C.3     1  UNL1        0.1391
      8 C         142.9205  139.6424  157.8886 C.3     1  UNL1        0.0449
      9 C         143.4729  140.2934  156.6554 C.3     1  UNL1        0.0746
     10 N         144.1957  141.6037  156.7586 N.3     1  UNL1       -0.2676
     11 C         144.3662  142.2629  158.0952 C.3     1  UNL1        0.0746
     12 C         143.8138  141.6119  159.3284 C.3     1  UNL1        0.0449
     13 C         142.6191  136.0990  156.5819 C.ar    1  UNL1        0.2293
     14 C         142.9389  136.9792  157.7535 C.ar    1  UNL1        0.0924
     15 C         142.0293  138.1187  158.1059 C.ar    1  UNL1        0.1453
     16 N         140.7999  138.3779  157.2865 N.ar    1  UNL1       -0.2084
     17 C         140.4800  137.4977  156.1149 C.ar    1  UNL1        0.2027
     18 N         141.3896  136.3582  155.7625 N.ar    1  UNL1       -0.1892
     19 C         143.7871  133.8699  157.2275 C.3     1  UNL1        0.2542
     20 O         143.5286  134.9595  156.2294 O.3     1  UNL1       -0.4560
     21 C         142.3552  140.0099  163.0250 C.ar    1  UNL1        0.0622
     22 C         143.1208  139.1031  163.9423 C.ar    1  UNL1        0.0154
     23 C         142.9771  139.2448  165.4287 C.ar    1  UNL1        0.0010
     24 C         142.0678  140.2932  165.9978 C.ar    1  UNL1       -0.0036
     25 C         141.3021  141.2001  165.0804 C.ar    1  UNL1        0.0010
     26 C         141.4459  141.0583  163.5941 C.ar    1  UNL1        0.0154
     27 C         141.9241  140.4349  167.4842 C.2     1  UNL1       -0.0176
     28 C         142.6464  139.4924  168.4007 C.2     1  UNL1       -0.0023
     29 C         142.5026  139.6341  169.8871 C.2     1  UNL1        0.0203
     30 C         141.6366  140.7183  170.4568 C.2     1  UNL1        0.1007
     31 N         141.3054  141.1000  171.8691 N.2     1  UNL1       -0.1482
     32 N         140.3784  142.2786  171.8254 N.2     1  UNL1       -0.1467
     33 C         140.1367  142.6250  170.3861 C.2     1  UNL1        0.1197
     34 C         140.9143  141.6607  169.5403 C.2     1  UNL1        0.0225
     35 C         141.0580  141.5191  168.0540 C.3     1  UNL1        0.0558
     36 C         144.7481  142.2548  155.5253 C.3     1  UNL1        0.1183
     37 C         146.1975  142.0910  155.1757 C.ar    1  UNL1        0.0712
     38 N         147.2418  142.1728  156.2494 N.ar    1  UNL1       -0.2471
     39 C         148.6913  142.0089  155.8998 C.ar    1  UNL1        0.0985
     40 C         149.0964  141.7632  154.4766 C.ar    1  UNL1        0.0203
     41 C         148.0521  141.6814  153.4030 C.ar    1  UNL1       -0.0015
     42 C         146.6027  141.8452  153.7525 C.ar    1  UNL1       -0.0069
     43 C         145.5584  141.7633  152.6789 C.3     1  UNL1        0.0323
@<TRIPOS>BOND
     1    19    20    1
     2    20    13    1
     3    13    14   ar
     4    14    15   ar
     5    15     1    1
     6     1     2   am
     7     2     3    2
     8     2     4   am
     9     4    21    1
    10    21    22   ar
    11    22    23   ar
    12    23    24   ar
    13    24    27    1
    14    27    28    2
    15    28    29    1
    16    29    30    2
    17    30    31    1
    18    31    32    2
    19    32    33    1
    20    33    34    2
    21    34    35    1
    22    24    25   ar
    23    25    26   ar
    24     4     5   am
    25     5     6    2
    26     5     7    1
    27     7     8    1
    28     8     9    1
    29     9    10    1
    30    10    36    1
    31    36    37    1
    32    37    38   ar
    33    38    39   ar
    34    39    40   ar
    35    40    41   ar
    36    41    42   ar
    37    42    43    1
    38    10    11    1
    39    11    12    1
    40    15    16   ar
    41    16    17   ar
    42    17    18   ar
    43    18    13   ar
    44     7     1    1
    45    42    37   ar
    46    26    21   ar
    47    12     7    1
    48    35    27    1
    49    34    30    1
@<TRIPOS>MOLECULE
*****
 43 49 0 0 0
SMALL
GASTEIGER

@<TRIPOS>ATOM
      1 N         138.8869  141.2374  158.9252 N.am    1  UNL1       -0.2222
      2 C         138.7302  141.6627  160.3552 C.2     1  UNL1        0.3219
      3 O         137.9280  142.8320  160.8445 O.2     1  UNL1       -0.2512
      4 N         139.5166  140.7134  161.2100 N.am    1  UNL1       -0.1907
      5 C         140.1593  139.7015  160.3083 C.2     1  UNL1        0.2529
      6 O         141.0370  138.5652  160.7424 O.2     1  UNL1       -0.2724
      7 C         139.7701  140.0253  158.8963 C.3     1  UNL1        0.1391
      8 C         139.2993  140.4696  157.5432 C.3     1  UNL1        0.0449
      9 C         139.7196  139.7140  156.3175 C.3     1  UNL1        0.0746
     10 N         140.6107  138.5142  156.4448 N.3     1  UNL1       -0.2676
     11 C         141.0815  138.0699  157.7979 C.3     1  UNL1        0.0746
     12 C         140.6613  138.8255  159.0236 C.3     1  UNL1        0.0449
     13 C         136.3481  142.0755  155.9924 C.ar    1  UNL1        0.2293
     14 C         136.9661  141.4062  157.1841 C.ar    1  UNL1        0.0924
     15 C         138.2690  141.9067  157.7336 C.ar    1  UNL1        0.1453
     16 N         138.9539  143.0766  157.0914 N.ar    1  UNL1       -0.2084
     17 C         138.3360  143.7459  155.8998 C.ar    1  UNL1        0.2027
     18 N         137.0330  143.2454  155.3502 N.ar    1  UNL1       -0.1892
     19 C         134.4546  140.2970  155.9601 C.3     1  UNL1        0.2542
     20 O         135.0452  141.5751  155.4429 O.3     1  UNL1       -0.4560
     21 C         139.6388  140.7667  162.7039 C.ar    1  UNL1        0.0622
     22 C         140.5514  141.7688  163.3465 C.ar    1  UNL1        0.0154
     23 C         140.6736  141.8221  164.8406 C.ar    1  UNL1        0.0010
     24 C         139.8832  140.8733  165.6921 C.ar    1  UNL1       -0.0036
     25 C         138.9705  139.8712  165.0495 C.ar    1  UNL1        0.0010
     26 C         138.8484  139.8179  163.5554 C.ar    1  UNL1        0.0154
     27 C         140.0054  140.9266  167.1862 C.2     1  UNL1       -0.0176
     28 C         139.1778  140.0118  168.0395 C.2     1  UNL1       -0.0023
     29 C         139.3000  140.0651  169.5336 C.2     1  UNL1        0.0203
     30 C         140.2498  141.0333  170.1742 C.2     1  UNL1        0.1007
     31 N         140.5827  141.3114  171.6102 N.2     1  UNL1       -0.1482
     32 N         141.6161  142.3982  171.6443 N.2     1  UNL1       -0.1467
     33 C         141.9219  142.7916  170.2295 C.2     1  UNL1        0.1197
     34 C         141.0775  141.9481  169.3209 C.2     1  UNL1        0.0225
     35 C         140.9553  141.8948  167.8270 C.3     1  UNL1        0.0558
     36 C         141.0309  137.7586  155.2190 C.3     1  UNL1        0.1183
     37 C         141.7603  136.4549  155.3548 C.ar    1  UNL1        0.0712
     38 N         140.9926  135.1670  155.3976 N.ar    1  UNL1       -0.2471
     39 C         141.7220  133.8633  155.5335 C.ar    1  UNL1        0.0985
     40 C         143.2190  133.8476  155.6265 C.ar    1  UNL1        0.0203
     41 C         143.9867  135.1355  155.5838 C.ar    1  UNL1       -0.0015
     42 C         143.2573  136.4392  155.4479 C.ar    1  UNL1       -0.0069
     43 C         144.0250  137.7271  155.4051 C.3     1  UNL1        0.0323
@<TRIPOS>BOND
     1    19    20    1
     2    20    13    1
     3    13    14   ar
     4    14    15   ar
     5    15     1    1
     6     1     2   am
     7     2     3    2
     8     2     4   am
     9     4    21    1
    10    21    22   ar
    11    22    23   ar
    12    23    24   ar
    13    24    27    1
    14    27    28    2
    15    28    29    1
    16    29    30    2
    17    30    31    1
    18    31    32    2
    19    32    33    1
    20    33    34    2
    21    34    35    1
    22    24    25   ar
    23    25    26   ar
    24     4     5   am
    25     5     6    2
    26     5     7    1
    27     7     8    1
    28     8     9    1
    29     9    10    1
    30    10    36    1
    31    36    37    1
    32    37    38   ar
    33    38    39   ar
    34    39    40   ar
    35    40    41   ar
    36    41    42   ar
    37    42    43    1
    38    10    11    1
    39    11    12    1
    40    15    16   ar
    41    16    17   ar
    42    17    18   ar
    43    18    13   ar
    44     7     1    1
    45    42    37   ar
    46    26    21   ar
    47    12     7    1
    48    35    27    1
    49    34    30    1
@<TRIPOS>MOLECULE
*****
 43 49 0 0 0
SMALL
GASTEIGER

@<TRIPOS>ATOM
      1 N         143.3219  140.8562  158.6359 N.am    1  UNL1       -0.2222
      2 C         142.9866  141.4749  159.9606 C.2     1  UNL1        0.3219
      3 O         143.1450  142.9218  160.3234 O.2     1  UNL1       -0.2512
      4 N         142.4651  140.3927  160.8589 N.am    1  UNL1       -0.1907
      5 C         142.4781  139.1052  160.0894 C.2     1  UNL1        0.2529
      6 O         142.0387  137.7663  160.6034 O.2     1  UNL1       -0.2724
      7 C         143.0076  139.3916  158.7154 C.3     1  UNL1        0.1391
      8 C         143.5509  139.8278  157.3871 C.3     1  UNL1        0.0449
      9 C         143.7340  138.8256  156.2861 C.3     1  UNL1        0.0746
     10 N         143.3739  137.3874  156.5135 N.3     1  UNL1       -0.2676
     11 C         142.8306  136.9513  157.8419 C.3     1  UNL1        0.0746
     12 C         142.6475  137.9534  158.9429 C.3     1  UNL1        0.0449
     13 C         145.9088  142.4764  156.0996 C.ar    1  UNL1        0.2293
     14 C         145.3563  141.7568  157.2941 C.ar    1  UNL1        0.0924
     15 C         143.8745  141.5758  157.4414 C.ar    1  UNL1        0.1453
     16 N         142.9454  142.1142  156.3941 N.ar    1  UNL1       -0.2084
     17 C         143.4979  142.8337  155.1996 C.ar    1  UNL1        0.2027
     18 N         144.9797  143.0148  155.0523 N.ar    1  UNL1       -0.1892
     19 C         148.1548  141.8181  154.9718 C.3     1  UNL1        0.2542
     20 O         147.3905  142.6575  155.9523 O.3     1  UNL1       -0.4560
     21 C         142.0104  140.5673  162.2775 C.ar    1  UNL1        0.0622
     22 C         142.9806  141.0275  163.3248 C.ar    1  UNL1        0.0154
     23 C         142.5259  141.2021  164.7436 C.ar    1  UNL1        0.0010
     24 C         141.1010  140.9166  165.1150 C.ar    1  UNL1       -0.0036
     25 C         140.1306  140.4565  164.0677 C.ar    1  UNL1        0.0010
     26 C         140.5854  140.2818  162.6490 C.ar    1  UNL1        0.0154
     27 C         140.6462  141.0913  166.5337 C.2     1  UNL1       -0.0176
     28 C         139.9543  139.9655  167.2435 C.2     1  UNL1       -0.0023
     29 C         139.4996  140.1401  168.6622 C.2     1  UNL1        0.0203
     30 C         139.7369  141.4406  169.3711 C.2     1  UNL1        0.1007
     31 N         139.4036  141.9026  170.7587 N.2     1  UNL1       -0.1482
     32 N         139.8896  143.3140  170.9065 N.2     1  UNL1       -0.1467
     33 C         140.5232  143.7243  169.6103 C.2     1  UNL1        0.1197
     34 C         140.4288  142.5664  168.6613 C.2     1  UNL1        0.0225
     35 C         140.8835  142.3918  167.2427 C.3     1  UNL1        0.0558
     36 C         143.5570  136.3852  155.4125 C.3     1  UNL1        0.1183
     37 C         143.1273  134.9624  155.6143 C.ar    1  UNL1        0.0712
     38 N         144.0445  133.9916  156.2973 N.ar    1  UNL1       -0.2471
     39 C         143.6148  132.5687  156.4991 C.ar    1  UNL1        0.0985
     40 C         142.2679  132.1166  156.0179 C.ar    1  UNL1        0.0203
     41 C         141.3508  133.0873  155.3349 C.ar    1  UNL1       -0.0015
     42 C         141.7804  134.5102  155.1331 C.ar    1  UNL1       -0.0069
     43 C         140.8633  135.4809  154.4501 C.3     1  UNL1        0.0323
@<TRIPOS>BOND
     1    19    20    1
     2    20    13    1
     3    13    14   ar
     4    14    15   ar
     5    15     1    1
     6     1     2   am
     7     2     3    2
     8     2     4   am
     9     4    21    1
    10    21    22   ar
    11    22    23   ar
    12    23    24   ar
    13    24    27    1
    14    27    28    2
    15    28    29    1
    16    29    30    2
    17    30    31    1
    18    31    32    2
    19    32    33    1
    20    33    34    2
    21    34    35    1
    22    24    25   ar
    23    25    26   ar
    24     4     5   am
    25     5     6    2
    26     5     7    1
    27     7     8    1
    28     8     9    1
    29     9    10    1
    30    10    36    1
    31    36    37    1
    32    37    38   ar
    33    38    39   ar
    34    39    40   ar
    35    40    41   ar
    36    41    42   ar
    37    42    43    1
    38    10    11    1
    39    11    12    1
    40    15    16   ar
    41    16    17   ar
    42    17    18   ar
    43    18    13   ar
    44     7     1    1
    45    42    37   ar
    46    26    21   ar
    47    12     7    1
    48    35    27    1
    49    34    30    1
@<TRIPOS>MOLECULE
*****
 43 49 0 0 0
SMALL
GASTEIGER

@<TRIPOS>ATOM
      1 N         143.2181  142.0898  159.0961 N.am    1  UNL1       -0.2222
      2 C         143.5463  141.8180  160.5344 C.2     1  UNL1        0.3219
      3 O         144.7287  141.0447  161.0381 O.2     1  UNL1       -0.2512
      4 N         142.4843  142.4555  161.3806 N.am    1  UNL1       -0.1907
      5 C         141.4998  143.1212  160.4653 C.2     1  UNL1        0.2529
      6 O         140.2766  143.8797  160.8876 O.2     1  UNL1       -0.2724
      7 C         141.9533  142.8951  159.0534 C.3     1  UNL1        0.1391
      8 C         142.5279  142.5895  157.7020 C.3     1  UNL1        0.0449
      9 C         141.8379  143.0822  156.4647 C.3     1  UNL1        0.0746
     10 N         140.5731  143.8807  156.5789 N.3     1  UNL1       -0.2676
     11 C         139.9985  144.1863  157.9303 C.3     1  UNL1        0.0746
     12 C         140.6886  143.6935  159.1675 C.3     1  UNL1        0.0449
     13 C         145.9980  141.9783  156.2661 C.ar    1  UNL1        0.2293
     14 C         145.2013  142.4322  157.4532 C.ar    1  UNL1        0.0924
     15 C         144.0148  141.6358  157.9091 C.ar    1  UNL1        0.1453
     16 N         143.6250  140.3854  157.1779 N.ar    1  UNL1       -0.2084
     17 C         144.4216  139.9314  155.9909 C.ar    1  UNL1        0.2027
     18 N         145.6082  140.7279  155.5349 N.ar    1  UNL1       -0.1892
     19 C         147.1622  143.4552  154.4736 C.3     1  UNL1        0.2542
     20 O         147.1845  142.7746  155.8101 O.3     1  UNL1       -0.4560
     21 C         142.4184  142.4315  162.8789 C.ar    1  UNL1        0.0622
     22 C         143.4469  143.1660  163.6867 C.ar    1  UNL1        0.0154
     23 C         143.3810  143.1420  165.1851 C.ar    1  UNL1        0.0010
     24 C         142.2865  142.3836  165.8756 C.ar    1  UNL1       -0.0036
     25 C         141.2579  141.6490  165.0678 C.ar    1  UNL1        0.0010
     26 C         141.3239  141.6731  163.5694 C.ar    1  UNL1        0.0154
     27 C         142.2206  142.3596  167.3740 C.2     1  UNL1       -0.0176
     28 C         143.4822  142.2553  168.1787 C.2     1  UNL1       -0.0023
     29 C         143.4163  142.2313  169.6770 C.2     1  UNL1        0.0203
     30 C         142.0887  142.3116  170.3706 C.2     1  UNL1        0.1007
     31 N         141.7135  142.3103  171.8230 N.2     1  UNL1       -0.1482
     32 N         140.2199  142.4137  171.9159 N.2     1  UNL1       -0.1467
     33 C         139.6721  142.4790  170.5211 C.2     1  UNL1        0.1197
     34 C         140.8271  142.4158  169.5660 C.2     1  UNL1        0.0225
     35 C         140.8930  142.4398  168.0677 C.3     1  UNL1        0.0558
     36 C         139.8831  144.3735  155.3415 C.3     1  UNL1        0.1183
     37 C         139.8285  145.8434  155.0481 C.ar    1  UNL1        0.0712
     38 N         138.9652  146.7431  155.8820 N.ar    1  UNL1       -0.2471
     39 C         138.9107  148.2132  155.5885 C.ar    1  UNL1        0.0985
     40 C         139.7194  148.7835  154.4613 C.ar    1  UNL1        0.0203
     41 C         140.5827  147.8838  153.6275 C.ar    1  UNL1       -0.0015
     42 C         140.6373  146.4138  153.9209 C.ar    1  UNL1       -0.0069
     43 C         141.5006  145.5141  153.0870 C.3     1  UNL1        0.0323
@<TRIPOS>BOND
     1    19    20    1
     2    20    13    1
     3    13    14   ar
     4    14    15   ar
     5    15     1    1
     6     1     2   am
     7     2     3    2
     8     2     4   am
     9     4    21    1
    10    21    22   ar
    11    22    23   ar
    12    23    24   ar
    13    24    27    1
    14    27    28    2
    15    28    29    1
    16    29    30    2
    17    30    31    1
    18    31    32    2
    19    32    33    1
    20    33    34    2
    21    34    35    1
    22    24    25   ar
    23    25    26   ar
    24     4     5   am
    25     5     6    2
    26     5     7    1
    27     7     8    1
    28     8     9    1
    29     9    10    1
    30    10    36    1
    31    36    37    1
    32    37    38   ar
    33    38    39   ar
    34    39    40   ar
    35    40    41   ar
    36    41    42   ar
    37    42    43    1
    38    10    11    1
    39    11    12    1
    40    15    16   ar
    41    16    17   ar
    42    17    18   ar
    43    18    13   ar
    44     7     1    1
    45    42    37   ar
    46    26    21   ar
    47    12     7    1
    48    35    27    1
    49    34    30    1
