@<TRIPOS>MOLECULE
*****
 34 38 0 0 0
SMALL
GASTEIGER

@<TRIPOS>ATOM
      1 C         140.3649  141.3321  165.5517 C.ar    1  UNL1        0.0906
      2 C         140.6035  142.0009  166.8730 C.ar    1  UNL1        0.1518
      3 O         139.9158  143.3337  166.8487 O.2     1  UNL1       -0.4533
      4 C         139.2522  143.4887  165.5124 C.ar    1  UNL1        0.1454
      5 C         138.4310  144.5964  164.9220 C.ar    1  UNL1        0.0406
      6 C         137.8874  144.4671  163.5300 C.ar    1  UNL1        0.0395
      7 C         138.1649  143.2300  162.7284 C.ar    1  UNL1        0.1311
      8 O         137.6213  143.1007  161.3364 O.3     1  UNL1       -0.5058
      9 C         138.9861  142.1222  163.3188 C.ar    1  UNL1        0.0308
     10 C         139.5297  142.2516  164.7108 C.ar    1  UNL1        0.0421
     11 H         137.1083  143.7926  160.9676 H       1  UNL1        0.2922
     12 C         141.3915  141.4360  168.0175 C.ar    1  UNL1        0.0623
     13 C         142.6839  142.0776  168.4273 C.ar    1  UNL1        0.0084
     14 C         143.4718  141.5127  169.5719 C.ar    1  UNL1        0.0369
     15 C         142.9674  140.3063  170.3066 C.ar    1  UNL1        0.1359
     16 O         143.7554  139.7414  171.4512 O.3     1  UNL1       -0.5054
     17 C         141.6750  139.6647  169.8968 C.ar    1  UNL1        0.0663
     18 C         140.8870  140.2295  168.7523 C.ar    1  UNL1        0.1460
     19 F         139.5946  139.5878  168.3424 F       1  UNL1       -0.2040
     20 H         144.5627  140.1422  171.7072 H       1  UNL1        0.2922
     21 C         142.7106  138.5029  164.0538 C.3     1  UNL1        0.1109
     22 N         142.2031  139.8540  164.4625 N.am    1  UNL1       -0.2991
     23 C         140.8723  139.9810  165.1430 C.2     1  UNL1        0.2490
     24 O         140.0490  138.7570  165.4146 O.2     1  UNL1       -0.2700
     25 H         142.7435  140.6574  164.2842 H       1  UNL1        0.1498
     26 C         139.2636  140.8851  162.5172 C.3     1  UNL1        0.1023
     27 N         140.5389  140.7679  161.7363 N.3     1  UNL1       -0.2687
     28 C         141.5744  141.8408  161.5726 C.3     1  UNL1        0.0726
     29 C         142.6781  141.2931  160.7171 C.3     1  UNL1        0.0235
     30 C         142.3248  139.8817  160.3520 C.3     1  UNL1        0.0707
     31 C         142.1753  138.4694  159.8694 C.3     1  UNL1        0.1458
     32 O         143.4902  138.5744  159.1551 O.3     1  UNL1       -0.3535
     33 C         143.6396  139.9867  159.6378 C.3     1  UNL1        0.1458
     34 C         141.0027  139.5571  160.9820 C.3     1  UNL1        0.0772
@<TRIPOS>BOND
     1    21    22    1
     2    22    23   am
     3    23    24    2
     4    23     1    1
     5     1     2   ar
     6     2    12    1
     7    12    13   ar
     8    13    14   ar
     9    14    15   ar
    10    15    16    1
    11    15    17   ar
    12    17    18   ar
    13    18    19    1
    14     2     3   ar
    15     3     4   ar
    16     4     5   ar
    17     5     6   ar
    18     6     7   ar
    19     7     8    1
    20     7     9   ar
    21     9    26    1
    22    26    27    1
    23    27    28    1
    24    28    29    1
    25    29    30    1
    26    30    31    1
    27    31    32    1
    28    32    33    1
    29    30    34    1
    30     9    10   ar
    31    10     1   ar
    32    18    12   ar
    33    10     4   ar
    34    34    27    1
    35    33    30    1
    36    22    25    1
    37    16    20    1
    38     8    11    1
@<TRIPOS>MOLECULE
*****
 34 38 0 0 0
SMALL
GASTEIGER

@<TRIPOS>ATOM
      1 C         141.5837  142.7596  165.3840 C.ar    1  UNL1        0.0906
      2 C         140.5112  142.9259  166.4194 C.ar    1  UNL1        0.1518
      3 O         139.4681  143.8486  165.8622 O.2     1  UNL1       -0.4533
      4 C         139.8959  144.2526  164.4824 C.ar    1  UNL1        0.1454
      5 C         139.2638  145.1464  163.4570 C.ar    1  UNL1        0.0406
      6 C         139.9392  145.3671  162.1360 C.ar    1  UNL1        0.0395
      7 C         141.2467  144.6940  161.8404 C.ar    1  UNL1        0.1311
      8 O         141.9221  144.9148  160.5194 O.3     1  UNL1       -0.5058
      9 C         141.8788  143.8003  162.8659 C.ar    1  UNL1        0.0308
     10 C         141.2034  143.5796  164.1869 C.ar    1  UNL1        0.0421
     11 H         141.5272  145.4731  159.8788 H       1  UNL1        0.2922
     12 C         140.4863  142.2825  167.7742 C.ar    1  UNL1        0.0623
     13 C         140.7822  143.0983  168.9976 C.ar    1  UNL1        0.0084
     14 C         140.7572  142.4549  170.3523 C.ar    1  UNL1        0.0369
     15 C         140.4363  140.9956  170.4837 C.ar    1  UNL1        0.1359
     16 O         140.4113  140.3521  171.8384 O.3     1  UNL1       -0.5054
     17 C         140.1403  140.1797  169.2603 C.ar    1  UNL1        0.0663
     18 C         140.1653  140.8231  167.9056 C.ar    1  UNL1        0.1460
     19 F         139.8693  140.0072  166.6821 F       1  UNL1       -0.2040
     20 H         140.5962  140.8618  172.6026 H       1  UNL1        0.2922
     21 C         143.9890  139.6031  165.4154 C.3     1  UNL1        0.1109
     22 N         142.7532  140.4420  165.2779 N.am    1  UNL1       -0.2991
     23 C         142.8195  141.9207  165.5215 C.2     1  UNL1        0.2490
     24 O         144.1217  142.5602  165.9026 O.2     1  UNL1       -0.2700
     25 H         141.8986  140.0222  165.0278 H       1  UNL1        0.1498
     26 C         143.1864  143.1272  162.5703 C.3     1  UNL1        0.1023
     27 N         143.2157  141.6721  162.2075 N.3     1  UNL1       -0.2687
     28 C         144.4461  140.8460  161.9747 C.3     1  UNL1        0.0726
     29 C         144.0107  139.4509  161.6372 C.3     1  UNL1        0.0235
     30 C         142.5113  139.4146  161.6613 C.3     1  UNL1        0.0707
     31 C         141.0350  139.1511  161.6285 C.3     1  UNL1        0.1458
     32 O         141.2985  137.7195  161.2663 O.3     1  UNL1       -0.3535
     33 C         142.7748  137.9831  161.2992 C.3     1  UNL1        0.1458
     34 C         142.0200  140.7874  162.0138 C.3     1  UNL1        0.0772
@<TRIPOS>BOND
     1    21    22    1
     2    22    23   am
     3    23    24    2
     4    23     1    1
     5     1     2   ar
     6     2    12    1
     7    12    13   ar
     8    13    14   ar
     9    14    15   ar
    10    15    16    1
    11    15    17   ar
    12    17    18   ar
    13    18    19    1
    14     2     3   ar
    15     3     4   ar
    16     4     5   ar
    17     5     6   ar
    18     6     7   ar
    19     7     8    1
    20     7     9   ar
    21     9    26    1
    22    26    27    1
    23    27    28    1
    24    28    29    1
    25    29    30    1
    26    30    31    1
    27    31    32    1
    28    32    33    1
    29    30    34    1
    30     9    10   ar
    31    10     1   ar
    32    18    12   ar
    33    10     4   ar
    34    34    27    1
    35    33    30    1
    36    22    25    1
    37    16    20    1
    38     8    11    1
@<TRIPOS>MOLECULE
*****
 34 38 0 0 0
SMALL
GASTEIGER

@<TRIPOS>ATOM
      1 C         139.5954  141.4919  165.8181 C.ar    1  UNL1        0.0906
      2 C         140.1867  142.3537  166.8941 C.ar    1  UNL1        0.1518
      3 O         140.0862  143.7831  166.4507 O.2     1  UNL1       -0.4533
      4 C         139.4328  143.8048  165.1006 C.ar    1  UNL1        0.1454
      5 C         139.0749  144.9310  164.1768 C.ar    1  UNL1        0.0406
      6 C         138.4137  144.6412  162.8620 C.ar    1  UNL1        0.0395
      7 C         138.1103  143.2252  162.4711 C.ar    1  UNL1        0.1311
      8 O         137.4491  142.9354  161.1562 O.3     1  UNL1       -0.5058
      9 C         138.4682  142.0990  163.3949 C.ar    1  UNL1        0.0308
     10 C         139.1295  142.3888  164.7097 C.ar    1  UNL1        0.0421
     11 H         137.2255  143.6389  160.5791 H       1  UNL1        0.2922
     12 C         140.7751  141.8708  168.1866 C.ar    1  UNL1        0.0623
     13 C         139.8802  141.3325  169.2633 C.ar    1  UNL1        0.0084
     14 C         140.4686  140.8496  170.5558 C.ar    1  UNL1        0.0369
     15 C         141.9520  140.9049  170.7716 C.ar    1  UNL1        0.1359
     16 O         142.5404  140.4220  172.0641 O.3     1  UNL1       -0.5054
     17 C         142.8469  141.4432  169.6949 C.ar    1  UNL1        0.0663
     18 C         142.2584  141.9261  168.4024 C.ar    1  UNL1        0.1460
     19 F         143.1534  142.4644  167.3257 F       1  UNL1       -0.2040
     20 H         141.9814  140.0858  172.7367 H       1  UNL1        0.2922
     21 C         138.1064  137.8471  166.3167 C.3     1  UNL1        0.1109
     22 N         138.2131  139.3431  166.2891 N.am    1  UNL1       -0.2991
     23 C         139.4887  139.9960  165.8457 C.2     1  UNL1        0.2490
     24 O         140.6575  139.1529  165.4298 O.2     1  UNL1       -0.2700
     25 H         137.4459  139.8964  166.5621 H       1  UNL1        0.1498
     26 C         138.1649  140.6829  163.0039 C.3     1  UNL1        0.1023
     27 N         138.8648  140.0623  161.8314 N.3     1  UNL1       -0.2687
     28 C         138.2331  139.6932  160.5218 C.3     1  UNL1        0.0726
     29 C         139.2971  139.1046  159.6435 C.3     1  UNL1        0.0235
     30 C         140.5864  139.1098  160.4102 C.3     1  UNL1        0.0707
     31 C         141.9692  139.0178  160.9840 C.3     1  UNL1        0.1458
     32 O         142.4588  138.4040  159.7059 O.3     1  UNL1       -0.3535
     33 C         141.0759  138.4960  159.1321 C.3     1  UNL1        0.1458
     34 C         140.3192  139.7017  161.7624 C.3     1  UNL1        0.0772
@<TRIPOS>BOND
     1    21    22    1
     2    22    23   am
     3    23    24    2
     4    23     1    1
     5     1     2   ar
     6     2    12    1
     7    12    13   ar
     8    13    14   ar
     9    14    15   ar
    10    15    16    1
    11    15    17   ar
    12    17    18   ar
    13    18    19    1
    14     2     3   ar
    15     3     4   ar
    16     4     5   ar
    17     5     6   ar
    18     6     7   ar
    19     7     8    1
    20     7     9   ar
    21     9    26    1
    22    26    27    1
    23    27    28    1
    24    28    29    1
    25    29    30    1
    26    30    31    1
    27    31    32    1
    28    32    33    1
    29    30    34    1
    30     9    10   ar
    31    10     1   ar
    32    18    12   ar
    33    10     4   ar
    34    34    27    1
    35    33    30    1
    36    22    25    1
    37    16    20    1
    38     8    11    1
@<TRIPOS>MOLECULE
*****
 34 38 0 0 0
SMALL
GASTEIGER

@<TRIPOS>ATOM
      1 C         140.0050  141.5732  165.4026 C.ar    1  UNL1        0.0906
      2 C         140.5155  140.9566  166.6711 C.ar    1  UNL1        0.1518
      3 O         140.2416  139.4829  166.6130 O.2     1  UNL1       -0.4533
      4 C         139.5619  139.1888  165.3086 C.ar    1  UNL1        0.1454
      5 C         139.0573  137.9116  164.7054 C.ar    1  UNL1        0.0406
      6 C         138.4063  137.9262  163.3541 C.ar    1  UNL1        0.0395
      7 C         138.2601  139.2181  162.6060 C.ar    1  UNL1        0.1311
      8 O         137.6091  139.2327  161.2547 O.3     1  UNL1       -0.5058
      9 C         138.7647  140.4953  163.2093 C.ar    1  UNL1        0.0308
     10 C         139.4156  140.4807  164.5605 C.ar    1  UNL1        0.0421
     11 H         137.2938  138.4348  160.8779 H       1  UNL1        0.2922
     12 C         141.1827  141.6856  167.7996 C.ar    1  UNL1        0.0623
     13 C         140.3584  142.4693  168.7776 C.ar    1  UNL1        0.0084
     14 C         141.0256  143.1983  169.9060 C.ar    1  UNL1        0.0369
     15 C         142.5170  143.1436  170.0565 C.ar    1  UNL1        0.1359
     16 O         143.1842  143.8726  171.1850 O.3     1  UNL1       -0.5054
     17 C         143.3412  142.3599  169.0786 C.ar    1  UNL1        0.0663
     18 C         142.6741  141.6309  167.9501 C.ar    1  UNL1        0.1460
     19 F         143.4984  140.8472  166.9721 F       1  UNL1       -0.2040
     20 H         142.6693  144.3621  171.7959 H       1  UNL1        0.2922
     21 C         141.3323  145.0166  163.9426 C.3     1  UNL1        0.1109
     22 N         141.2653  143.5627  164.3053 N.am    1  UNL1       -0.2991
     23 C         140.0720  143.0271  165.0398 C.2     1  UNL1        0.2490
     24 O         138.9459  143.9456  165.4115 O.2     1  UNL1       -0.2700
     25 H         142.0045  142.9599  164.0614 H       1  UNL1        0.1498
     26 C         138.6184  141.7872  162.4612 C.3     1  UNL1        0.1023
     27 N         139.7437  142.2907  161.6067 N.3     1  UNL1       -0.2687
     28 C         140.9812  141.5269  161.2386 C.3     1  UNL1        0.0726
     29 C         141.8315  142.4104  160.3746 C.3     1  UNL1        0.0235
     30 C         141.1195  143.7203  160.2088 C.3     1  UNL1        0.0707
     31 C         140.5924  145.0927  159.9113 C.3     1  UNL1        0.1458
     32 O         141.8153  145.3851  159.0933 O.3     1  UNL1       -0.3535
     33 C         142.3423  144.0126  159.3908 C.3     1  UNL1        0.1458
     34 C         139.8292  143.6463  160.9702 C.3     1  UNL1        0.0772
@<TRIPOS>BOND
     1    21    22    1
     2    22    23   am
     3    23    24    2
     4    23     1    1
     5     1     2   ar
     6     2    12    1
     7    12    13   ar
     8    13    14   ar
     9    14    15   ar
    10    15    16    1
    11    15    17   ar
    12    17    18   ar
    13    18    19    1
    14     2     3   ar
    15     3     4   ar
    16     4     5   ar
    17     5     6   ar
    18     6     7   ar
    19     7     8    1
    20     7     9   ar
    21     9    26    1
    22    26    27    1
    23    27    28    1
    24    28    29    1
    25    29    30    1
    26    30    31    1
    27    31    32    1
    28    32    33    1
    29    30    34    1
    30     9    10   ar
    31    10     1   ar
    32    18    12   ar
    33    10     4   ar
    34    34    27    1
    35    33    30    1
    36    22    25    1
    37    16    20    1
    38     8    11    1
@<TRIPOS>MOLECULE
*****
 34 38 0 0 0
SMALL
GASTEIGER

@<TRIPOS>ATOM
      1 C         141.4979  140.4071  165.3514 C.ar    1  UNL1        0.0906
      2 C         140.8367  140.1207  166.6669 C.ar    1  UNL1        0.1518
      3 O         139.7432  139.1220  166.4283 O.2     1  UNL1       -0.4533
      4 C         139.7286  138.7913  164.9653 C.ar    1  UNL1        0.1454
      5 C         138.8679  137.8695  164.1532 C.ar    1  UNL1        0.0406
      6 C         139.0917  137.7420  162.6755 C.ar    1  UNL1        0.0395
      7 C         140.1762  138.5362  162.0099 C.ar    1  UNL1        0.1311
      8 O         140.4000  138.4087  160.5322 O.3     1  UNL1       -0.5058
      9 C         141.0369  139.4580  162.8220 C.ar    1  UNL1        0.0308
     10 C         140.8131  139.5855  164.2997 C.ar    1  UNL1        0.0421
     11 H         139.8624  137.8329  160.0249 H       1  UNL1        0.2922
     12 C         141.2043  140.7265  167.9890 C.ar    1  UNL1        0.0623
     13 C         141.9037  139.8977  169.0252 C.ar    1  UNL1        0.0084
     14 C         142.2714  140.5035  170.3473 C.ar    1  UNL1        0.0369
     15 C         141.9397  141.9381  170.6330 C.ar    1  UNL1        0.1359
     16 O         142.3074  142.5439  171.9551 O.3     1  UNL1       -0.5054
     17 C         141.2404  142.7670  169.5968 C.ar    1  UNL1        0.0663
     18 C         140.8727  142.1611  168.2747 C.ar    1  UNL1        0.1460
     19 F         140.1733  142.9901  167.2385 F       1  UNL1       -0.2040
     20 H         142.7443  142.0262  172.6024 H       1  UNL1        0.2922
     21 C         143.5227  143.7442  164.6342 C.3     1  UNL1        0.1109
     22 N         142.3777  142.8016  164.8587 N.am    1  UNL1       -0.2991
     23 C         142.6429  141.3497  165.1269 C.2     1  UNL1        0.2490
     24 O         144.0531  140.8406  165.1704 O.2     1  UNL1       -0.2700
     25 H         141.4521  143.1359  164.8301 H       1  UNL1        0.1498
     26 C         142.1214  140.2523  162.1564 C.3     1  UNL1        0.1023
     27 N         141.8707  141.6761  161.7568 N.3     1  UNL1       -0.2687
     28 C         142.8759  142.6133  161.1557 C.3     1  UNL1        0.0726
     29 C         142.1972  143.9292  160.9154 C.3     1  UNL1        0.0235
     30 C         140.7725  143.8054  161.3680 C.3     1  UNL1        0.0707
     31 C         139.3261  143.9058  161.7526 C.3     1  UNL1        0.1458
     32 O         139.3013  145.3316  161.2870 O.3     1  UNL1       -0.3535
     33 C         140.7477  145.2311  160.9025 C.3     1  UNL1        0.1458
     34 C         140.5707  142.4129  161.8880 C.3     1  UNL1        0.0772
@<TRIPOS>BOND
     1    21    22    1
     2    22    23   am
     3    23    24    2
     4    23     1    1
     5     1     2   ar
     6     2    12    1
     7    12    13   ar
     8    13    14   ar
     9    14    15   ar
    10    15    16    1
    11    15    17   ar
    12    17    18   ar
    13    18    19    1
    14     2     3   ar
    15     3     4   ar
    16     4     5   ar
    17     5     6   ar
    18     6     7   ar
    19     7     8    1
    20     7     9   ar
    21     9    26    1
    22    26    27    1
    23    27    28    1
    24    28    29    1
    25    29    30    1
    26    30    31    1
    27    31    32    1
    28    32    33    1
    29    30    34    1
    30     9    10   ar
    31    10     1   ar
    32    18    12   ar
    33    10     4   ar
    34    34    27    1
    35    33    30    1
    36    22    25    1
    37    16    20    1
    38     8    11    1
@<TRIPOS>MOLECULE
*****
 34 38 0 0 0
SMALL
GASTEIGER

@<TRIPOS>ATOM
      1 C         141.1479  141.5074  164.3058 C.ar    1  UNL1        0.0906
      2 C         141.1984  140.1815  165.0055 C.ar    1  UNL1        0.1518
      3 O         142.6120  139.6827  164.9518 O.2     1  UNL1       -0.4533
      4 C         143.4352  140.7002  164.2190 C.ar    1  UNL1        0.1454
      5 C         144.8918  140.7455  163.8638 C.ar    1  UNL1        0.0406
      6 C         145.4435  141.9186  163.1092 C.ar    1  UNL1        0.0395
      7 C         144.5387  143.0463  162.7099 C.ar    1  UNL1        0.1311
      8 O         145.0905  144.2195  161.9553 O.3     1  UNL1       -0.5058
      9 C         143.0821  143.0010  163.0652 C.ar    1  UNL1        0.0308
     10 C         142.5303  141.8279  163.8197 C.ar    1  UNL1        0.0421
     11 H         146.0004  144.2478  161.7334 H       1  UNL1        0.2922
     12 C         140.0388  139.4781  165.6462 C.ar    1  UNL1        0.0623
     13 C         139.4906  138.2238  165.0329 C.ar    1  UNL1        0.0084
     14 C         138.3311  137.5203  165.6737 C.ar    1  UNL1        0.0369
     15 C         137.7197  138.0711  166.9278 C.ar    1  UNL1        0.1359
     16 O         136.5602  137.3677  167.5685 O.3     1  UNL1       -0.5054
     17 C         138.2680  139.3254  167.5411 C.ar    1  UNL1        0.0663
     18 C         139.4275  140.0288  166.9003 C.ar    1  UNL1        0.1460
     19 F         139.9757  141.2832  167.5138 F       1  UNL1       -0.2040
     20 H         136.2177  136.5842  167.1854 H       1  UNL1        0.2922
     21 C         137.9141  143.1291  162.6740 C.3     1  UNL1        0.1109
     22 N         139.1329  142.2739  162.8558 N.am    1  UNL1       -0.2991
     23 C         139.9291  142.3626  164.1240 C.2     1  UNL1        0.2490
     24 O         139.5063  143.3064  165.2104 O.2     1  UNL1       -0.2700
     25 H         139.4104  141.6544  162.1427 H       1  UNL1        0.1498
     26 C         142.1773  144.1288  162.6659 C.3     1  UNL1        0.1023
     27 N         141.4841  144.0994  161.3360 N.3     1  UNL1       -0.2687
     28 C         140.5582  145.1512  160.8008 C.3     1  UNL1        0.0726
     29 C         140.0970  144.7149  159.4419 C.3     1  UNL1        0.0235
     30 C         140.7378  143.3933  159.1370 C.3     1  UNL1        0.0707
     31 C         141.2623  142.0835  158.6281 C.3     1  UNL1        0.1458
     32 O         140.4774  142.2611  157.3622 O.3     1  UNL1       -0.3535
     33 C         139.9529  143.5710  157.8713 C.3     1  UNL1        0.1458
     34 C         141.5951  143.0129  160.3077 C.3     1  UNL1        0.0772
@<TRIPOS>BOND
     1    21    22    1
     2    22    23   am
     3    23    24    2
     4    23     1    1
     5     1     2   ar
     6     2    12    1
     7    12    13   ar
     8    13    14   ar
     9    14    15   ar
    10    15    16    1
    11    15    17   ar
    12    17    18   ar
    13    18    19    1
    14     2     3   ar
    15     3     4   ar
    16     4     5   ar
    17     5     6   ar
    18     6     7   ar
    19     7     8    1
    20     7     9   ar
    21     9    26    1
    22    26    27    1
    23    27    28    1
    24    28    29    1
    25    29    30    1
    26    30    31    1
    27    31    32    1
    28    32    33    1
    29    30    34    1
    30     9    10   ar
    31    10     1   ar
    32    18    12   ar
    33    10     4   ar
    34    34    27    1
    35    33    30    1
    36    22    25    1
    37    16    20    1
    38     8    11    1
@<TRIPOS>MOLECULE
*****
 34 38 0 0 0
SMALL
GASTEIGER

@<TRIPOS>ATOM
      1 C         141.6123  142.3153  165.4544 C.ar    1  UNL1        0.0906
      2 C         141.1817  142.3616  166.8905 C.ar    1  UNL1        0.1518
      3 O         139.9712  143.2426  166.9832 O.2     1  UNL1       -0.4533
      4 C         139.6537  143.7408  165.6045 C.ar    1  UNL1        0.1454
      5 C         138.5720  144.6422  165.0873 C.ar    1  UNL1        0.0406
      6 C         138.5046  144.9705  163.6253 C.ar    1  UNL1        0.0395
      7 C         139.5189  144.3974  162.6804 C.ar    1  UNL1        0.1311
      8 O         139.4515  144.7258  161.2183 O.3     1  UNL1       -0.5058
      9 C         140.6005  143.4960  163.1975 C.ar    1  UNL1        0.0308
     10 C         140.6679  143.1677  164.6595 C.ar    1  UNL1        0.0421
     11 H         138.7758  145.2889  160.8952 H       1  UNL1        0.2922
     12 C         141.8451  141.6516  168.0332 C.ar    1  UNL1        0.0623
     13 C         142.9421  142.3277  168.8009 C.ar    1  UNL1        0.0084
     14 C         143.6055  141.6177  169.9436 C.ar    1  UNL1        0.0369
     15 C         143.1719  140.2316  170.3186 C.ar    1  UNL1        0.1359
     16 O         143.8353  139.5216  171.4613 O.3     1  UNL1       -0.5054
     17 C         142.0749  139.5555  169.5509 C.ar    1  UNL1        0.0663
     18 C         141.4115  140.2655  168.4082 C.ar    1  UNL1        0.1460
     19 F         140.3144  139.5894  167.6405 F       1  UNL1       -0.2040
     20 H         144.5206  139.9439  171.9409 H       1  UNL1        0.2922
     21 C         143.8330  139.3123  164.1125 C.3     1  UNL1        0.1109
     22 N         142.6634  140.0767  164.6581 N.am    1  UNL1       -0.2991
     23 C         142.7819  141.5509  164.9088 C.2     1  UNL1        0.2490
     24 O         144.0700  142.2605  164.6139 O.2     1  UNL1       -0.2700
     25 H         141.8179  139.6109  164.8516 H       1  UNL1        0.1498
     26 C         141.6148  142.9230  162.2526 C.3     1  UNL1        0.1023
     27 N         141.2732  141.7193  161.4254 N.3     1  UNL1       -0.2687
     28 C         141.7640  141.4357  160.0365 C.3     1  UNL1        0.0726
     29 C         141.1750  140.1289  159.5944 C.3     1  UNL1        0.0235
     30 C         140.3201  139.6048  160.7101 C.3     1  UNL1        0.0707
     31 C         139.4224  138.8989  161.6825 C.3     1  UNL1        0.1458
     32 O         139.2187  137.7920  160.6909 O.3     1  UNL1       -0.3535
     33 C         140.1165  138.4980  159.7185 C.3     1  UNL1        0.1458
     34 C         140.3808  140.5877  161.8416 C.3     1  UNL1        0.0772
@<TRIPOS>BOND
     1    21    22    1
     2    22    23   am
     3    23    24    2
     4    23     1    1
     5     1     2   ar
     6     2    12    1
     7    12    13   ar
     8    13    14   ar
     9    14    15   ar
    10    15    16    1
    11    15    17   ar
    12    17    18   ar
    13    18    19    1
    14     2     3   ar
    15     3     4   ar
    16     4     5   ar
    17     5     6   ar
    18     6     7   ar
    19     7     8    1
    20     7     9   ar
    21     9    26    1
    22    26    27    1
    23    27    28    1
    24    28    29    1
    25    29    30    1
    26    30    31    1
    27    31    32    1
    28    32    33    1
    29    30    34    1
    30     9    10   ar
    31    10     1   ar
    32    18    12   ar
    33    10     4   ar
    34    34    27    1
    35    33    30    1
    36    22    25    1
    37    16    20    1
    38     8    11    1
@<TRIPOS>MOLECULE
*****
 34 38 0 0 0
SMALL
GASTEIGER

@<TRIPOS>ATOM
      1 C         141.5866  141.6593  165.4955 C.ar    1  UNL1        0.0906
      2 C         141.8513  141.2658  166.9185 C.ar    1  UNL1        0.1518
      3 O         142.9776  140.2752  166.9235 O.2     1  UNL1       -0.4533
      4 C         143.4091  140.0566  165.5037 C.ar    1  UNL1        0.1454
      5 C         144.4737  139.1890  164.9004 C.ar    1  UNL1        0.0406
      6 C         144.6786  139.1770  163.4146 C.ar    1  UNL1        0.0395
      7 C         143.8189  140.0325  162.5319 C.ar    1  UNL1        0.1311
      8 O         144.0238  140.0204  161.0460 O.3     1  UNL1       -0.5058
      9 C         142.7543  140.9000  163.1352 C.ar    1  UNL1        0.0308
     10 C         142.5494  140.9120  164.6210 C.ar    1  UNL1        0.0421
     11 H         144.6889  139.4785  160.6692 H       1  UNL1        0.2922
     12 C         141.1183  141.7736  168.1247 C.ar    1  UNL1        0.0623
     13 C         141.4317  143.1331  168.6754 C.ar    1  UNL1        0.0084
     14 C         140.6987  143.6409  169.8816 C.ar    1  UNL1        0.0369
     15 C         139.6523  142.7892  170.5370 C.ar    1  UNL1        0.1359
     16 O         138.9193  143.2970  171.7432 O.3     1  UNL1       -0.5054
     17 C         139.3389  141.4297  169.9862 C.ar    1  UNL1        0.0663
     18 C         140.0719  140.9219  168.7800 C.ar    1  UNL1        0.1460
     19 F         139.7584  139.5623  168.2293 F       1  UNL1       -0.2040
     20 H         139.1151  144.1463  172.0872 H       1  UNL1        0.2922
     21 C         138.1045  143.1237  164.2784 C.3     1  UNL1        0.1109
     22 N         139.1487  142.1532  164.7451 N.am    1  UNL1       -0.2991
     23 C         140.5424  142.6299  165.0287 C.2     1  UNL1        0.2490
     24 O         140.8919  144.0770  164.8456 O.2     1  UNL1       -0.2700
     25 H         138.9192  141.2034  164.8653 H       1  UNL1        0.1498
     26 C         141.8945  141.7555  162.2526 C.3     1  UNL1        0.1023
     27 N         140.5487  141.2622  161.8108 N.3     1  UNL1       -0.2687
     28 C         139.5442  142.0378  161.0110 C.3     1  UNL1        0.0726
     29 C         138.3456  141.1616  160.7971 C.3     1  UNL1        0.0235
     30 C         138.6093  139.8444  161.4647 C.3     1  UNL1        0.0707
     31 C         138.6592  138.4664  162.0549 C.3     1  UNL1        0.1458
     32 O         137.2885  138.1852  161.5141 O.3     1  UNL1       -0.3535
     33 C         137.2388  139.5633  160.9239 C.3     1  UNL1        0.1458
     34 C         139.9708  139.9066  162.0912 C.3     1  UNL1        0.0772
@<TRIPOS>BOND
     1    21    22    1
     2    22    23   am
     3    23    24    2
     4    23     1    1
     5     1     2   ar
     6     2    12    1
     7    12    13   ar
     8    13    14   ar
     9    14    15   ar
    10    15    16    1
    11    15    17   ar
    12    17    18   ar
    13    18    19    1
    14     2     3   ar
    15     3     4   ar
    16     4     5   ar
    17     5     6   ar
    18     6     7   ar
    19     7     8    1
    20     7     9   ar
    21     9    26    1
    22    26    27    1
    23    27    28    1
    24    28    29    1
    25    29    30    1
    26    30    31    1
    27    31    32    1
    28    32    33    1
    29    30    34    1
    30     9    10   ar
    31    10     1   ar
    32    18    12   ar
    33    10     4   ar
    34    34    27    1
    35    33    30    1
    36    22    25    1
    37    16    20    1
    38     8    11    1
@<TRIPOS>MOLECULE
*****
 34 38 0 0 0
SMALL
GASTEIGER

@<TRIPOS>ATOM
      1 C         141.3669  140.4127  163.3557 C.ar    1  UNL1        0.0906
      2 C         141.3319  139.8917  164.7619 C.ar    1  UNL1        0.1518
      3 O         142.6838  140.1147  165.3725 O.2     1  UNL1       -0.4533
      4 C         143.5542  140.7735  164.3437 C.ar    1  UNL1        0.1454
      5 C         144.9827  141.2294  164.3809 C.ar    1  UNL1        0.0406
      6 C         145.5974  141.8695  163.1716 C.ar    1  UNL1        0.0395
      7 C         144.7835  142.0538  161.9252 C.ar    1  UNL1        0.1311
      8 O         145.3982  142.6940  160.7159 O.3     1  UNL1       -0.5058
      9 C         143.3550  141.5978  161.8880 C.ar    1  UNL1        0.0308
     10 C         142.7403  140.9577  163.0973 C.ar    1  UNL1        0.0421
     11 H         146.2906  142.9788  160.7391 H       1  UNL1        0.2922
     12 C         140.1523  139.2589  165.4386 C.ar    1  UNL1        0.0623
     13 C         139.6233  137.9435  164.9488 C.ar    1  UNL1        0.0084
     14 C         138.4436  137.3107  165.6255 C.ar    1  UNL1        0.0369
     15 C         137.7930  137.9932  166.7920 C.ar    1  UNL1        0.1359
     16 O         136.6133  137.3604  167.4687 O.3     1  UNL1       -0.5054
     17 C         138.3220  139.3085  167.2818 C.ar    1  UNL1        0.0663
     18 C         139.5017  139.9414  166.6051 C.ar    1  UNL1        0.1460
     19 F         140.0307  141.2568  167.0950 F       1  UNL1       -0.2040
     20 H         136.2829  136.5387  167.1627 H       1  UNL1        0.2922
     21 C         138.9635  139.2447  160.4215 C.3     1  UNL1        0.1109
     22 N         140.1020  139.2650  161.3978 N.am    1  UNL1       -0.2991
     23 C         140.2284  140.3924  162.3793 C.2     1  UNL1        0.2490
     24 O         139.2161  141.4993  162.3844 O.2     1  UNL1       -0.2700
     25 H         140.7664  138.5385  161.3945 H       1  UNL1        0.1498
     26 C         142.5411  141.7821  160.6415 C.3     1  UNL1        0.1023
     27 N         141.7791  143.0557  160.4248 N.3     1  UNL1       -0.2687
     28 C         141.3520  143.6130  159.0992 C.3     1  UNL1        0.0726
     29 C         140.6193  144.8975  159.3506 C.3     1  UNL1        0.0235
     30 C         140.5935  145.1342  160.8317 C.3     1  UNL1        0.0707
     31 C         140.4489  145.5671  162.2605 C.3     1  UNL1        0.1458
     32 O         139.7003  146.7882  161.8147 O.3     1  UNL1       -0.3535
     33 C         139.8450  146.3551  160.3859 C.3     1  UNL1        0.1458
     34 C         141.3103  143.9959  161.4955 C.3     1  UNL1        0.0772
@<TRIPOS>BOND
     1    21    22    1
     2    22    23   am
     3    23    24    2
     4    23     1    1
     5     1     2   ar
     6     2    12    1
     7    12    13   ar
     8    13    14   ar
     9    14    15   ar
    10    15    16    1
    11    15    17   ar
    12    17    18   ar
    13    18    19    1
    14     2     3   ar
    15     3     4   ar
    16     4     5   ar
    17     5     6   ar
    18     6     7   ar
    19     7     8    1
    20     7     9   ar
    21     9    26    1
    22    26    27    1
    23    27    28    1
    24    28    29    1
    25    29    30    1
    26    30    31    1
    27    31    32    1
    28    32    33    1
    29    30    34    1
    30     9    10   ar
    31    10     1   ar
    32    18    12   ar
    33    10     4   ar
    34    34    27    1
    35    33    30    1
    36    22    25    1
    37    16    20    1
    38     8    11    1
