@<TRIPOS>MOLECULE
*****
 51 58 0 0 0
SMALL
GASTEIGER

@<TRIPOS>ATOM
      1 C         139.3577  141.8776  164.9100 C.ar    1  UNL1        0.2216
      2 N         138.5156  143.0669  164.5545 N.ar    1  UNL1       -0.2120
      3 C         138.2001  143.3598  163.1177 C.ar    1  UNL1        0.1048
      4 C         138.7266  142.4635  162.0363 C.ar    1  UNL1        0.0551
      5 C         138.4110  142.7565  160.5994 C.ar    1  UNL1        0.0061
      6 C         138.9375  141.8601  159.5181 C.ar    1  UNL1        0.0179
      7 C         139.7796  140.6708  159.8736 C.ar    1  UNL1        0.0829
      8 N         140.0952  140.3778  161.3105 N.ar    1  UNL1       -0.2264
      9 C         139.5687  141.2742  162.3918 C.ar    1  UNL1        0.1666
     10 N         139.8842  140.9813  163.8287 N.ar    1  UNL1       -0.1945
     11 N         140.3045  140.9986  169.2207 N.3     1  UNL1       -0.2677
     12 C         140.6783  142.3239  168.6259 C.3     1  UNL1        0.0940
     13 C         140.3627  142.6169  167.1889 C.3     1  UNL1        0.1109
     14 N         139.6733  141.5846  166.3469 N.pl3   1  UNL1       -0.2753
     15 C         139.2995  140.2593  166.9417 C.3     1  UNL1        0.1109
     16 C         139.6150  139.9663  168.3786 C.3     1  UNL1        0.0940
     17 C         140.6200  140.7056  170.6575 C.3     1  UNL1        0.1043
     18 O         142.2636  142.2985  171.8869 O.3     1  UNL1       -0.3805
     19 C         141.9889  140.9943  171.1986 C.3     1  UNL1        0.1544
     20 H         143.1898  142.3238  172.1739 H       1  UNL1        0.2105
     21 C         138.6220  142.1531  158.0812 C.ar    1  UNL1        0.0015
     22 C         137.4705  141.4641  157.4107 C.ar    1  UNL1        0.0000
     23 C         137.1549  141.7570  155.9738 C.ar    1  UNL1        0.0000
     24 C         137.9908  142.7389  155.2075 C.ar    1  UNL1        0.0000
     25 C         139.1422  143.4278  155.8780 C.ar    1  UNL1        0.0000
     26 C         139.4578  143.1349  157.3149 C.ar    1  UNL1        0.0000
     27 C         140.3062  139.7744  158.7923 C.ar    1  UNL1        0.0177
     28 C         139.5384  138.5488  158.3941 C.ar    1  UNL1        0.0012
     29 C         140.0650  137.6524  157.3127 C.ar    1  UNL1       -0.0029
     30 C         141.3592  137.9817  156.6296 C.ar    1  UNL1       -0.0061
     31 C         142.1268  139.2073  157.0278 C.ar    1  UNL1       -0.0029
     32 C         141.6003  140.1036  158.1092 C.ar    1  UNL1        0.0012
     33 C         141.8857  137.0853  155.5483 C.3     1  UNL1        0.0991
     34 N         142.1615  135.6400  155.8402 N.3     1  UNL1       -0.2689
     35 C         141.3983  134.5700  155.1174 C.3     1  UNL1        0.0728
     36 C         141.6741  133.1247  155.4094 C.3     1  UNL1        0.0249
     37 C         142.7131  132.7495  156.4242 C.3     1  UNL1        0.0613
     38 C         143.4763  133.8197  157.1470 C.3     1  UNL1        0.0249
     39 C         143.2005  135.2649  156.8550 C.3     1  UNL1        0.0728
     40 C         142.9889  131.3043  156.7161 C.ar    1  UNL1        0.1397
     41 N         142.5121  130.1348  155.9069 N.ar    1  UNL1       -0.1335
     42 N         143.0185  128.8825  156.5592 N.ar    1  UNL1       -0.1261
     43 C         143.8082  129.2782  157.7716 C.ar    1  UNL1        0.1990
     44 N         143.7899  130.7750  157.8686 N.ar    1  UNL1       -0.3221
     45 H         144.2269  131.3151  158.5661 H       1  UNL1        0.1687
     46 C         144.4955  128.3416  158.7205 C.ar    1  UNL1        0.1988
     47 N         145.5254  127.3783  158.2093 N.ar    1  UNL1       -0.2224
     48 C         146.2127  126.4417  159.1581 C.ar    1  UNL1        0.1023
     49 C         145.8702  126.4683  160.6182 C.ar    1  UNL1        0.0414
     50 C         144.8402  127.4317  161.1295 C.ar    1  UNL1        0.1023
     51 N         144.1529  128.3682  160.1806 N.ar    1  UNL1       -0.2224
@<TRIPOS>BOND
     1    18    19    1
     2    19    17    1
     3    17    11    1
     4    11    12    1
     5    12    13    1
     6    13    14    1
     7    14     1    1
     8     1     2   ar
     9     2     3   ar
    10     3     4   ar
    11     4     5   ar
    12     5     6   ar
    13     6    21    1
    14    21    22   ar
    15    22    23   ar
    16    23    24   ar
    17    24    25   ar
    18    25    26   ar
    19     6     7   ar
    20     7    27    1
    21    27    28   ar
    22    28    29   ar
    23    29    30   ar
    24    30    33    1
    25    33    34    1
    26    34    35    1
    27    35    36    1
    28    36    37    1
    29    37    40    1
    30    40    41   ar
    31    41    42   ar
    32    42    43   ar
    33    43    46    1
    34    46    47   ar
    35    47    48   ar
    36    48    49   ar
    37    49    50   ar
    38    50    51   ar
    39    43    44   ar
    40    37    38    1
    41    38    39    1
    42    30    31   ar
    43    31    32   ar
    44     7     8   ar
    45     8     9   ar
    46     9    10   ar
    47    14    15    1
    48    15    16    1
    49    16    11    1
    50    10     1   ar
    51     9     4   ar
    52    26    21   ar
    53    32    27   ar
    54    39    34    1
    55    44    40   ar
    56    51    46   ar
    57    18    20    1
    58    44    45    1
@<TRIPOS>MOLECULE
*****
 51 58 0 0 0
SMALL
GASTEIGER

@<TRIPOS>ATOM
      1 C         142.4668  142.7614  164.1792 C.ar    1  UNL1        0.2216
      2 N         143.8299  143.1936  163.7264 N.ar    1  UNL1       -0.2120
      3 C         144.1237  143.3359  162.2624 C.ar    1  UNL1        0.1048
      4 C         143.0544  143.0460  161.2512 C.ar    1  UNL1        0.0551
      5 C         143.3483  143.1884  159.7871 C.ar    1  UNL1        0.0061
      6 C         142.2790  142.8985  158.7759 C.ar    1  UNL1        0.0179
      7 C         140.9159  142.4663  159.2287 C.ar    1  UNL1        0.0829
      8 N         140.6220  142.3239  160.6928 N.ar    1  UNL1       -0.2264
      9 C         141.6913  142.6138  161.7040 C.ar    1  UNL1        0.1666
     10 N         141.3975  142.4715  163.1680 N.ar    1  UNL1       -0.1945
     11 N         141.5851  142.3344  168.5714 N.3     1  UNL1       -0.2677
     12 C         142.9838  142.1416  168.0650 C.3     1  UNL1        0.0940
     13 C         143.2777  142.2840  166.6009 C.3     1  UNL1        0.1109
     14 N         142.1729  142.6191  165.6433 N.pl3   1  UNL1       -0.2753
     15 C         140.7742  142.8119  166.1497 C.3     1  UNL1        0.1109
     16 C         140.4803  142.6696  167.6137 C.3     1  UNL1        0.0940
     17 C         141.2912  142.1921  170.0353 C.3     1  UNL1        0.1043
     18 O         142.1722  140.8482  172.0769 O.3     1  UNL1       -0.3805
     19 C         141.5263  140.8802  170.7234 C.3     1  UNL1        0.1544
     20 H         142.2496  139.9289  172.3766 H       1  UNL1        0.2105
     21 C         142.5728  143.0408  157.3119 C.ar    1  UNL1        0.0015
     22 C         142.3029  144.3418  156.6157 C.ar    1  UNL1        0.0000
     23 C         142.5967  144.4841  155.1517 C.ar    1  UNL1        0.0000
     24 C         143.1605  143.3255  154.3838 C.ar    1  UNL1        0.0000
     25 C         143.4304  142.0245  155.0799 C.ar    1  UNL1        0.0000
     26 C         143.1366  141.8822  156.5440 C.ar    1  UNL1        0.0000
     27 C         139.8466  142.1764  158.2175 C.ar    1  UNL1        0.0177
     28 C         139.7424  140.8102  157.6068 C.ar    1  UNL1        0.0012
     29 C         138.6731  140.5203  156.5956 C.ar    1  UNL1       -0.0029
     30 C         137.7080  141.5966  156.1951 C.ar    1  UNL1       -0.0061
     31 C         137.8122  142.9626  156.8058 C.ar    1  UNL1       -0.0029
     32 C         138.8815  143.2525  157.8170 C.ar    1  UNL1        0.0012
     33 C         136.6387  141.3067  155.1839 C.3     1  UNL1        0.0991
     34 N         135.2499  140.9663  155.6374 N.3     1  UNL1       -0.2689
     35 C         134.0645  141.5226  154.9058 C.3     1  UNL1        0.0728
     36 C         132.6758  141.1822  155.3594 C.3     1  UNL1        0.0249
     37 C         132.4726  140.2854  156.5445 C.3     1  UNL1        0.0613
     38 C         133.6581  139.7291  157.2762 C.3     1  UNL1        0.0249
     39 C         135.0467  140.0696  156.8226 C.3     1  UNL1        0.0728
     40 C         131.0839  139.9450  156.9981 C.ar    1  UNL1        0.1397
     41 N         129.8135  140.2758  156.2725 N.ar    1  UNL1       -0.1335
     42 N         128.6663  139.7492  157.0828 N.ar    1  UNL1       -0.1261
     43 C         129.2278  139.0931  158.3094 C.ar    1  UNL1        0.1990
     44 N         130.7220  139.2141  158.2570 N.ar    1  UNL1       -0.3221
     45 H         131.3541  138.8736  158.9305 H       1  UNL1        0.1687
     46 C         128.4344  138.4320  159.3972 C.ar    1  UNL1        0.1988
     47 N         128.0356  139.2123  160.6147 N.ar    1  UNL1       -0.2224
     48 C         127.2421  138.5512  161.7026 C.ar    1  UNL1        0.1023
     49 C         126.8475  137.1099  161.5730 C.ar    1  UNL1        0.0414
     50 C         127.2463  136.3296  160.3555 C.ar    1  UNL1        0.1023
     51 N         128.0397  136.9907  159.2677 N.ar    1  UNL1       -0.2224
@<TRIPOS>BOND
     1    18    19    1
     2    19    17    1
     3    17    11    1
     4    11    12    1
     5    12    13    1
     6    13    14    1
     7    14     1    1
     8     1     2   ar
     9     2     3   ar
    10     3     4   ar
    11     4     5   ar
    12     5     6   ar
    13     6    21    1
    14    21    22   ar
    15    22    23   ar
    16    23    24   ar
    17    24    25   ar
    18    25    26   ar
    19     6     7   ar
    20     7    27    1
    21    27    28   ar
    22    28    29   ar
    23    29    30   ar
    24    30    33    1
    25    33    34    1
    26    34    35    1
    27    35    36    1
    28    36    37    1
    29    37    40    1
    30    40    41   ar
    31    41    42   ar
    32    42    43   ar
    33    43    46    1
    34    46    47   ar
    35    47    48   ar
    36    48    49   ar
    37    49    50   ar
    38    50    51   ar
    39    43    44   ar
    40    37    38    1
    41    38    39    1
    42    30    31   ar
    43    31    32   ar
    44     7     8   ar
    45     8     9   ar
    46     9    10   ar
    47    14    15    1
    48    15    16    1
    49    16    11    1
    50    10     1   ar
    51     9     4   ar
    52    26    21   ar
    53    32    27   ar
    54    39    34    1
    55    44    40   ar
    56    51    46   ar
    57    18    20    1
    58    44    45    1
@<TRIPOS>MOLECULE
*****
 51 58 0 0 0
SMALL
GASTEIGER

@<TRIPOS>ATOM
      1 C         146.8281  141.9753  155.2285 C.ar    1  UNL1        0.2216
      2 N         145.7886  141.3838  154.3233 N.ar    1  UNL1       -0.2120
      3 C         144.4297  141.0466  154.8614 C.ar    1  UNL1        0.1048
      4 C         144.1103  141.3009  156.3048 C.ar    1  UNL1        0.0551
      5 C         142.7513  140.9637  156.8429 C.ar    1  UNL1        0.0061
      6 C         142.4319  141.2180  158.2862 C.ar    1  UNL1        0.0179
      7 C         143.4715  141.8095  159.1915 C.ar    1  UNL1        0.0829
      8 N         144.8304  142.1467  158.6534 N.ar    1  UNL1       -0.2264
      9 C         145.1498  141.8924  157.2100 C.ar    1  UNL1        0.1666
     10 N         146.5087  142.2296  156.6719 N.ar    1  UNL1       -0.1945
     11 N         150.9050  142.9869  153.6142 N.3     1  UNL1       -0.2677
     12 C         149.6806  143.5862  152.9883 C.3     1  UNL1        0.0940
     13 C         148.3216  143.2489  153.5264 C.3     1  UNL1        0.1109
     14 N         148.1871  142.3125  154.6904 N.pl3   1  UNL1       -0.2753
     15 C         149.4114  141.7132  155.3163 C.3     1  UNL1        0.1109
     16 C         150.7704  142.0504  154.7783 C.3     1  UNL1        0.0940
     17 C         152.2640  143.3241  153.0762 C.3     1  UNL1        0.1043
     18 O         153.8298  145.3810  153.3359 O.3     1  UNL1       -0.3805
     19 C         153.2180  144.1341  153.9029 C.3     1  UNL1        0.1544
     20 H         154.4180  145.7811  153.9953 H       1  UNL1        0.2105
     21 C         141.0729  140.8808  158.8244 C.ar    1  UNL1        0.0015
     22 C         139.9199  141.8101  158.5856 C.ar    1  UNL1        0.0000
     23 C         138.5610  141.4729  159.1237 C.ar    1  UNL1        0.0000
     24 C         138.3550  140.2065  159.9006 C.ar    1  UNL1        0.0000
     25 C         139.5080  139.2772  160.1394 C.ar    1  UNL1        0.0000
     26 C         140.8670  139.6143  159.6013 C.ar    1  UNL1        0.0000
     27 C         143.1521  142.0638  160.6349 C.ar    1  UNL1        0.0177
     28 C         142.3673  143.2809  161.0262 C.ar    1  UNL1        0.0012
     29 C         142.0479  143.5352  162.4696 C.ar    1  UNL1       -0.0029
     30 C         142.5132  142.5725  163.5216 C.ar    1  UNL1       -0.0061
     31 C         143.2980  141.3555  163.1302 C.ar    1  UNL1       -0.0029
     32 C         143.6174  141.1012  161.6869 C.ar    1  UNL1        0.0012
     33 C         142.1938  142.8268  164.9650 C.3     1  UNL1        0.0991
     34 N         141.2034  141.9552  165.6788 N.3     1  UNL1       -0.2689
     35 C         141.1529  141.9495  167.1779 C.3     1  UNL1        0.0728
     36 C         140.1624  141.0780  167.8917 C.3     1  UNL1        0.0249
     37 C         139.2224  140.2122  167.1063 C.3     1  UNL1        0.0613
     38 C         139.2730  140.2179  165.6071 C.3     1  UNL1        0.0249
     39 C         140.2634  141.0894  164.8934 C.3     1  UNL1        0.0728
     40 C         138.2320  139.3407  167.8200 C.ar    1  UNL1        0.1397
     41 N         137.2775  138.3798  167.1752 N.ar    1  UNL1       -0.1335
     42 N         136.4777  137.7223  168.2605 N.ar    1  UNL1       -0.1261
     43 C         136.9380  138.2768  169.5762 C.ar    1  UNL1        0.1990
     44 N         138.0221  139.2769  169.3039 N.ar    1  UNL1       -0.3221
     45 H         138.5103  139.7998  169.9803 H       1  UNL1        0.1687
     46 C         136.4072  137.8976  170.9269 C.ar    1  UNL1        0.1988
     47 N         136.8457  136.6166  171.5725 N.ar    1  UNL1       -0.2224
     48 C         136.3149  136.2374  172.9233 C.ar    1  UNL1        0.1023
     49 C         135.3456  137.1392  173.6284 C.ar    1  UNL1        0.0414
     50 C         134.9070  138.4202  172.9827 C.ar    1  UNL1        0.1023
     51 N         135.4378  138.7993  171.6320 N.ar    1  UNL1       -0.2224
@<TRIPOS>BOND
     1    18    19    1
     2    19    17    1
     3    17    11    1
     4    11    12    1
     5    12    13    1
     6    13    14    1
     7    14     1    1
     8     1     2   ar
     9     2     3   ar
    10     3     4   ar
    11     4     5   ar
    12     5     6   ar
    13     6    21    1
    14    21    22   ar
    15    22    23   ar
    16    23    24   ar
    17    24    25   ar
    18    25    26   ar
    19     6     7   ar
    20     7    27    1
    21    27    28   ar
    22    28    29   ar
    23    29    30   ar
    24    30    33    1
    25    33    34    1
    26    34    35    1
    27    35    36    1
    28    36    37    1
    29    37    40    1
    30    40    41   ar
    31    41    42   ar
    32    42    43   ar
    33    43    46    1
    34    46    47   ar
    35    47    48   ar
    36    48    49   ar
    37    49    50   ar
    38    50    51   ar
    39    43    44   ar
    40    37    38    1
    41    38    39    1
    42    30    31   ar
    43    31    32   ar
    44     7     8   ar
    45     8     9   ar
    46     9    10   ar
    47    14    15    1
    48    15    16    1
    49    16    11    1
    50    10     1   ar
    51     9     4   ar
    52    26    21   ar
    53    32    27   ar
    54    39    34    1
    55    44    40   ar
    56    51    46   ar
    57    18    20    1
    58    44    45    1
@<TRIPOS>MOLECULE
*****
 51 58 0 0 0
SMALL
GASTEIGER

@<TRIPOS>ATOM
      1 C         142.7853  140.5121  164.8310 C.ar    1  UNL1        0.2216
      2 N         143.8714  139.5192  164.5408 N.ar    1  UNL1       -0.2120
      3 C         144.2238  139.1867  163.1212 C.ar    1  UNL1        0.1048
      4 C         143.4899  139.8471  161.9919 C.ar    1  UNL1        0.0551
      5 C         143.8423  139.5145  160.5722 C.ar    1  UNL1        0.0061
      6 C         143.1085  140.1749  159.4429 C.ar    1  UNL1        0.0179
      7 C         142.0223  141.1679  159.7332 C.ar    1  UNL1        0.0829
      8 N         141.6699  141.5004  161.1528 N.ar    1  UNL1       -0.2264
      9 C         142.4038  140.8400  162.2821 C.ar    1  UNL1        0.1666
     10 N         142.0514  141.1725  163.7017 N.ar    1  UNL1       -0.1945
     11 N         141.7281  141.5098  169.0898 N.3     1  UNL1       -0.2677
     12 C         142.6061  142.4336  168.2989 C.3     1  UNL1        0.0940
     13 C         142.9585  142.1011  166.8793 C.3     1  UNL1        0.1109
     14 N         142.4329  140.8447  166.2506 N.pl3   1  UNL1       -0.2753
     15 C         141.5548  139.9209  167.0416 C.3     1  UNL1        0.1109
     16 C         141.2024  140.2534  168.4611 C.3     1  UNL1        0.0940
     17 C         141.3757  141.8423  170.5094 C.3     1  UNL1        0.1043
     18 O         139.7583  143.8669  170.6968 O.3     1  UNL1       -0.3805
     19 C         140.0206  142.3965  170.8356 C.3     1  UNL1        0.1544
     20 H         138.8400  144.0565  170.9454 H       1  UNL1        0.2105
     21 C         143.4608  139.8424  158.0233 C.ar    1  UNL1        0.0015
     22 C         142.7882  138.6929  157.3331 C.ar    1  UNL1        0.0000
     23 C         143.1405  138.3604  155.9136 C.ar    1  UNL1        0.0000
     24 C         144.1655  139.1773  155.1841 C.ar    1  UNL1        0.0000
     25 C         144.8381  140.3267  155.8742 C.ar    1  UNL1        0.0000
     26 C         144.4858  140.6593  157.2939 C.ar    1  UNL1        0.0000
     27 C         141.2885  141.8283  158.6039 C.ar    1  UNL1        0.0177
     28 C         140.1275  141.1337  157.9559 C.ar    1  UNL1        0.0012
     29 C         139.3937  141.7941  156.8266 C.ar    1  UNL1       -0.0029
     30 C         139.8208  143.1491  156.3452 C.ar    1  UNL1       -0.0061
     31 C         140.9817  143.8436  156.9932 C.ar    1  UNL1       -0.0029
     32 C         141.7155  143.1832  158.1226 C.ar    1  UNL1        0.0012
     33 C         139.0870  143.8095  155.2159 C.3     1  UNL1        0.0991
     34 N         139.4094  145.2249  154.8379 N.3     1  UNL1       -0.2689
     35 C         138.7010  146.3615  155.5133 C.3     1  UNL1        0.0728
     36 C         139.0235  147.7769  155.1353 C.3     1  UNL1        0.0249
     37 C         140.0544  148.0555  154.0819 C.3     1  UNL1        0.0613
     38 C         140.7628  146.9188  153.4065 C.3     1  UNL1        0.0249
     39 C         140.4403  145.5035  153.7845 C.3     1  UNL1        0.0728
     40 C         140.3768  149.4708  153.7039 C.ar    1  UNL1        0.1397
     41 N         139.7051  150.2708  152.6273 N.ar    1  UNL1       -0.1335
     42 N         140.3407  151.6290  152.5941 N.ar    1  UNL1       -0.1261
     43 C         141.4053  151.6685  153.6502 C.ar    1  UNL1        0.1990
     44 N         141.4276  150.3347  154.3360 N.ar    1  UNL1       -0.3221
     45 H         142.0267  150.0723  155.0718 H       1  UNL1        0.1687
     46 C         142.2920  152.8367  153.9651 C.ar    1  UNL1        0.1988
     47 N         141.7607  154.2346  153.8478 N.ar    1  UNL1       -0.2224
     48 C         142.6473  155.4028  154.1627 C.ar    1  UNL1        0.1023
     49 C         144.0653  155.1732  154.5948 C.ar    1  UNL1        0.0414
     50 C         144.5965  153.7752  154.7121 C.ar    1  UNL1        0.1023
     51 N         143.7099  152.6071  154.3972 N.ar    1  UNL1       -0.2224
@<TRIPOS>BOND
     1    18    19    1
     2    19    17    1
     3    17    11    1
     4    11    12    1
     5    12    13    1
     6    13    14    1
     7    14     1    1
     8     1     2   ar
     9     2     3   ar
    10     3     4   ar
    11     4     5   ar
    12     5     6   ar
    13     6    21    1
    14    21    22   ar
    15    22    23   ar
    16    23    24   ar
    17    24    25   ar
    18    25    26   ar
    19     6     7   ar
    20     7    27    1
    21    27    28   ar
    22    28    29   ar
    23    29    30   ar
    24    30    33    1
    25    33    34    1
    26    34    35    1
    27    35    36    1
    28    36    37    1
    29    37    40    1
    30    40    41   ar
    31    41    42   ar
    32    42    43   ar
    33    43    46    1
    34    46    47   ar
    35    47    48   ar
    36    48    49   ar
    37    49    50   ar
    38    50    51   ar
    39    43    44   ar
    40    37    38    1
    41    38    39    1
    42    30    31   ar
    43    31    32   ar
    44     7     8   ar
    45     8     9   ar
    46     9    10   ar
    47    14    15    1
    48    15    16    1
    49    16    11    1
    50    10     1   ar
    51     9     4   ar
    52    26    21   ar
    53    32    27   ar
    54    39    34    1
    55    44    40   ar
    56    51    46   ar
    57    18    20    1
    58    44    45    1
@<TRIPOS>MOLECULE
*****
 51 58 0 0 0
SMALL
GASTEIGER

@<TRIPOS>ATOM
      1 C         147.3329  142.5841  153.8034 C.ar    1  UNL1        0.2216
      2 N         147.1287  143.9288  153.1709 N.ar    1  UNL1       -0.2120
      3 C         145.8267  144.6517  153.3498 C.ar    1  UNL1        0.1048
      4 C         144.7289  144.0300  154.1612 C.ar    1  UNL1        0.0551
      5 C         143.4268  144.7531  154.3400 C.ar    1  UNL1        0.0061
      6 C         142.3290  144.1314  155.1514 C.ar    1  UNL1        0.0179
      7 C         142.5333  142.7866  155.7839 C.ar    1  UNL1        0.0829
      8 N         143.8353  142.0637  155.6050 N.ar    1  UNL1       -0.2264
      9 C         144.9331  142.6854  154.7937 C.ar    1  UNL1        0.1666
     10 N         146.2351  141.9624  154.6148 N.ar    1  UNL1       -0.1945
     11 N         151.2391  140.4150  153.2670 N.3     1  UNL1       -0.2677
     12 C         150.2926  140.5524  152.1114 C.3     1  UNL1        0.0940
     13 C         148.9906  141.2755  152.2902 C.3     1  UNL1        0.1109
     14 N         148.6350  141.8611  153.6246 N.pl3   1  UNL1       -0.2753
     15 C         149.5814  141.7236  154.7802 C.3     1  UNL1        0.1109
     16 C         150.8834  141.0007  154.6014 C.3     1  UNL1        0.0940
     17 C         152.5411  139.6920  153.0882 C.3     1  UNL1        0.1043
     18 O         154.1263  141.4052  154.2293 O.3     1  UNL1       -0.3805
     19 C         153.8317  140.4561  153.1057 C.3     1  UNL1        0.1544
     20 H         154.9947  141.8136  154.0883 H       1  UNL1        0.2105
     21 C         141.0270  144.8543  155.3302 C.ar    1  UNL1        0.0015
     22 C         140.8971  145.9163  156.3817 C.ar    1  UNL1        0.0000
     23 C         139.5951  146.6393  156.5605 C.ar    1  UNL1        0.0000
     24 C         138.4229  146.3004  155.6880 C.ar    1  UNL1        0.0000
     25 C         138.5528  145.2384  154.6366 C.ar    1  UNL1        0.0000
     26 C         139.8549  144.5154  154.4577 C.ar    1  UNL1        0.0000
     27 C         141.4355  142.1649  156.5953 C.ar    1  UNL1        0.0177
     28 C         141.3258  142.4625  158.0614 C.ar    1  UNL1        0.0012
     29 C         140.2280  141.8408  158.8728 C.ar    1  UNL1       -0.0029
     30 C         139.2399  140.9215  158.2180 C.ar    1  UNL1       -0.0061
     31 C         139.3496  140.6240  156.7519 C.ar    1  UNL1       -0.0029
     32 C         140.4474  141.2457  155.9406 C.ar    1  UNL1        0.0012
     33 C         138.1421  140.2998  159.0294 C.3     1  UNL1        0.0991
     34 N         138.3032  140.1410  160.5122 N.3     1  UNL1       -0.2689
     35 C         137.7482  141.1786  161.4424 C.3     1  UNL1        0.0728
     36 C         137.9093  141.0198  162.9253 C.3     1  UNL1        0.0249
     37 C         138.6255  139.8233  163.4779 C.3     1  UNL1        0.0613
     38 C         139.1806  138.7856  162.5477 C.3     1  UNL1        0.0249
     39 C         139.0194  138.9445  161.0649 C.3     1  UNL1        0.0728
     40 C         138.7867  139.6645  164.9607 C.ar    1  UNL1        0.1397
     41 N         137.8619  138.9141  165.8728 N.ar    1  UNL1       -0.1335
     42 N         138.4046  139.0140  167.2676 N.ar    1  UNL1       -0.1261
     43 C         139.6648  139.8260  167.2176 C.ar    1  UNL1        0.1990
     44 N         139.9009  140.2280  165.7919 N.ar    1  UNL1       -0.3221
     45 H         140.6549  140.7672  165.4599 H       1  UNL1        0.1687
     46 C         140.5360  140.1748  168.3878 C.ar    1  UNL1        0.1988
     47 N         142.0055  140.3995  168.1883 N.ar    1  UNL1       -0.2224
     48 C         142.8767  140.7483  169.3585 C.ar    1  UNL1        0.1023
     49 C         142.2782  140.8725  170.7284 C.ar    1  UNL1        0.0414
     50 C         140.8085  140.6478  170.9279 C.ar    1  UNL1        0.1023
     51 N         139.9375  140.2990  169.7577 N.ar    1  UNL1       -0.2224
@<TRIPOS>BOND
     1    18    19    1
     2    19    17    1
     3    17    11    1
     4    11    12    1
     5    12    13    1
     6    13    14    1
     7    14     1    1
     8     1     2   ar
     9     2     3   ar
    10     3     4   ar
    11     4     5   ar
    12     5     6   ar
    13     6    21    1
    14    21    22   ar
    15    22    23   ar
    16    23    24   ar
    17    24    25   ar
    18    25    26   ar
    19     6     7   ar
    20     7    27    1
    21    27    28   ar
    22    28    29   ar
    23    29    30   ar
    24    30    33    1
    25    33    34    1
    26    34    35    1
    27    35    36    1
    28    36    37    1
    29    37    40    1
    30    40    41   ar
    31    41    42   ar
    32    42    43   ar
    33    43    46    1
    34    46    47   ar
    35    47    48   ar
    36    48    49   ar
    37    49    50   ar
    38    50    51   ar
    39    43    44   ar
    40    37    38    1
    41    38    39    1
    42    30    31   ar
    43    31    32   ar
    44     7     8   ar
    45     8     9   ar
    46     9    10   ar
    47    14    15    1
    48    15    16    1
    49    16    11    1
    50    10     1   ar
    51     9     4   ar
    52    26    21   ar
    53    32    27   ar
    54    39    34    1
    55    44    40   ar
    56    51    46   ar
    57    18    20    1
    58    44    45    1
@<TRIPOS>MOLECULE
*****
 51 58 0 0 0
SMALL
GASTEIGER

@<TRIPOS>ATOM
      1 C         146.9689  143.0732  154.2007 C.ar    1  UNL1        0.2216
      2 N         146.2930  144.1367  153.3872 N.ar    1  UNL1       -0.2120
      3 C         144.8052  144.3100  153.4672 C.ar    1  UNL1        0.1048
      4 C         143.9934  143.4198  154.3608 C.ar    1  UNL1        0.0551
      5 C         142.5055  143.5932  154.4409 C.ar    1  UNL1        0.0061
      6 C         141.6938  142.7030  155.3345 C.ar    1  UNL1        0.0179
      7 C         142.3698  141.6394  156.1480 C.ar    1  UNL1        0.0829
      8 N         143.8576  141.4661  156.0680 N.ar    1  UNL1       -0.2264
      9 C         144.6694  142.3563  155.1744 C.ar    1  UNL1        0.1666
     10 N         146.1571  142.1830  155.0943 N.ar    1  UNL1       -0.1945
     11 N         151.4324  142.5530  153.9607 N.3     1  UNL1       -0.2677
     12 C         150.7419  143.5326  153.0586 C.3     1  UNL1        0.0940
     13 C         149.2540  143.7059  153.1386 C.3     1  UNL1        0.1109
     14 N         148.4568  142.8998  154.1207 N.pl3   1  UNL1       -0.2753
     15 C         149.1473  141.9203  155.0228 C.3     1  UNL1        0.1109
     16 C         150.6350  141.7469  154.9428 C.3     1  UNL1        0.0940
     17 C         152.9202  142.3796  153.8807 C.3     1  UNL1        0.1043
     18 O         153.4519  139.8494  153.6251 O.3     1  UNL1       -0.3805
     19 C         153.5017  141.2483  153.0858 C.3     1  UNL1        0.1544
     20 H         153.8681  139.2438  152.9919 H       1  UNL1        0.2105
     21 C         140.2060  142.8763  155.4145 C.ar    1  UNL1        0.0015
     22 C         139.5901  143.5243  156.6191 C.ar    1  UNL1        0.0000
     23 C         138.1023  143.6976  156.6991 C.ar    1  UNL1        0.0000
     24 C         137.2304  143.2230  155.5747 C.ar    1  UNL1        0.0000
     25 C         137.8462  142.5751  154.3702 C.ar    1  UNL1        0.0000
     26 C         139.3340  142.4017  154.2901 C.ar    1  UNL1        0.0000
     27 C         141.5580  140.7492  157.0416 C.ar    1  UNL1        0.0177
     28 C         141.5493  140.9810  158.5236 C.ar    1  UNL1        0.0012
     29 C         140.7375  140.0908  159.4173 C.ar    1  UNL1       -0.0029
     30 C         139.9344  138.9688  158.8289 C.ar    1  UNL1       -0.0061
     31 C         139.9432  138.7370  157.3469 C.ar    1  UNL1       -0.0029
     32 C         140.7550  139.6272  156.4533 C.ar    1  UNL1        0.0012
     33 C         139.1226  138.0786  159.7225 C.3     1  UNL1        0.0991
     34 N         139.0714  138.3429  161.1982 N.3     1  UNL1       -0.2689
     35 C         138.0521  139.2921  161.7551 C.3     1  UNL1        0.0728
     36 C         138.0008  139.5564  163.2308 C.3     1  UNL1        0.0249
     37 C         138.9689  138.8715  164.1495 C.3     1  UNL1        0.0613
     38 C         139.9881  137.9224  163.5924 C.3     1  UNL1        0.0249
     39 C         140.0394  137.6581  162.1168 C.3     1  UNL1        0.0728
     40 C         138.9176  139.1358  165.6251 C.ar    1  UNL1        0.1397
     41 N         137.7834  138.7902  166.5439 N.ar    1  UNL1       -0.1335
     42 N         138.1564  139.2329  167.9276 N.ar    1  UNL1       -0.1261
     43 C         139.5212  139.8522  167.8641 C.ar    1  UNL1        0.1990
     44 N         139.9916  139.7922  166.4410 N.ar    1  UNL1       -0.3221
     45 H         140.8538  140.1252  166.1020 H       1  UNL1        0.1687
     46 C         140.2819  140.4300  169.0205 C.ar    1  UNL1        0.1988
     47 N         141.6082  139.8486  169.4113 N.ar    1  UNL1       -0.2224
     48 C         142.3690  140.4265  170.5678 C.ar    1  UNL1        0.1023
     49 C         141.8034  141.5857  171.3335 C.ar    1  UNL1        0.0414
     50 C         140.4769  142.1671  170.9426 C.ar    1  UNL1        0.1023
     51 N         139.7163  141.5893  169.7862 N.ar    1  UNL1       -0.2224
@<TRIPOS>BOND
     1    18    19    1
     2    19    17    1
     3    17    11    1
     4    11    12    1
     5    12    13    1
     6    13    14    1
     7    14     1    1
     8     1     2   ar
     9     2     3   ar
    10     3     4   ar
    11     4     5   ar
    12     5     6   ar
    13     6    21    1
    14    21    22   ar
    15    22    23   ar
    16    23    24   ar
    17    24    25   ar
    18    25    26   ar
    19     6     7   ar
    20     7    27    1
    21    27    28   ar
    22    28    29   ar
    23    29    30   ar
    24    30    33    1
    25    33    34    1
    26    34    35    1
    27    35    36    1
    28    36    37    1
    29    37    40    1
    30    40    41   ar
    31    41    42   ar
    32    42    43   ar
    33    43    46    1
    34    46    47   ar
    35    47    48   ar
    36    48    49   ar
    37    49    50   ar
    38    50    51   ar
    39    43    44   ar
    40    37    38    1
    41    38    39    1
    42    30    31   ar
    43    31    32   ar
    44     7     8   ar
    45     8     9   ar
    46     9    10   ar
    47    14    15    1
    48    15    16    1
    49    16    11    1
    50    10     1   ar
    51     9     4   ar
    52    26    21   ar
    53    32    27   ar
    54    39    34    1
    55    44    40   ar
    56    51    46   ar
    57    18    20    1
    58    44    45    1
@<TRIPOS>MOLECULE
*****
 51 58 0 0 0
SMALL
GASTEIGER

@<TRIPOS>ATOM
      1 C         142.8757  138.6946  169.9621 C.ar    1  UNL1        0.2216
      2 N         141.6515  139.3185  170.5638 N.ar    1  UNL1       -0.2120
      3 C         140.7376  140.1492  169.7126 C.ar    1  UNL1        0.1048
      4 C         141.0479  140.3561  168.2597 C.ar    1  UNL1        0.0551
      5 C         140.1339  141.1869  167.4085 C.ar    1  UNL1        0.0061
      6 C         140.4442  141.3938  165.9556 C.ar    1  UNL1        0.0179
      7 C         141.6685  140.7699  165.3539 C.ar    1  UNL1        0.0829
      8 N         142.5824  139.9391  166.2051 N.ar    1  UNL1       -0.2264
      9 C         142.2721  139.7323  167.6580 C.ar    1  UNL1        0.1666
     10 N         143.1860  138.9015  168.5092 N.ar    1  UNL1       -0.1945
     11 N         145.6175  136.2023  172.5157 N.3     1  UNL1       -0.2677
     12 C         145.6160  137.6959  172.6536 C.3     1  UNL1        0.0940
     13 C         144.7020  138.5267  171.8024 C.3     1  UNL1        0.1109
     14 N         143.7896  137.8638  170.8133 N.pl3   1  UNL1       -0.2753
     15 C         143.7912  136.3702  170.6755 C.3     1  UNL1        0.1109
     16 C         144.7051  135.5394  171.5266 C.3     1  UNL1        0.0940
     17 C         146.5314  135.3715  173.3669 C.3     1  UNL1        0.1043
     18 O         146.4047  132.7765  173.3715 O.3     1  UNL1       -0.3805
     19 C         146.0327  134.0964  173.9794 C.3     1  UNL1        0.1544
     20 H         146.0028  132.0589  173.8857 H       1  UNL1        0.2105
     21 C         139.5303  142.2245  165.1043 C.ar    1  UNL1        0.0015
     22 C         138.3662  141.5844  164.4077 C.ar    1  UNL1        0.0000
     23 C         137.4523  142.4151  163.5565 C.ar    1  UNL1        0.0000
     24 C         137.7024  143.8860  163.4019 C.ar    1  UNL1        0.0000
     25 C         138.8664  144.5262  164.0984 C.ar    1  UNL1        0.0000
     26 C         139.7804  143.6954  164.9497 C.ar    1  UNL1        0.0000
     27 C         141.9788  140.9767  163.9010 C.ar    1  UNL1        0.0177
     28 C         141.3162  140.1199  162.8632 C.ar    1  UNL1        0.0012
     29 C         141.6265  140.3268  161.4103 C.ar    1  UNL1       -0.0029
     30 C         142.5994  141.3905  160.9952 C.ar    1  UNL1       -0.0061
     31 C         143.2619  142.2472  162.0330 C.ar    1  UNL1       -0.0029
     32 C         142.9516  142.0403  163.4859 C.ar    1  UNL1        0.0012
     33 C         142.9097  141.5973  159.5423 C.3     1  UNL1        0.0991
     34 N         142.1404  142.6110  158.7480 N.3     1  UNL1       -0.2689
     35 C         141.4997  142.2175  157.4501 C.3     1  UNL1        0.0728
     36 C         140.7304  143.2312  156.6558 C.3     1  UNL1        0.0249
     37 C         140.6018  144.6382  157.1595 C.3     1  UNL1        0.0613
     38 C         141.2426  145.0316  158.4575 C.3     1  UNL1        0.0249
     39 C         142.0118  144.0180  159.2517 C.3     1  UNL1        0.0728
     40 C         139.8326  145.6518  156.3653 C.ar    1  UNL1        0.1397
     41 N         138.5724  145.3952  155.5932 N.ar    1  UNL1       -0.1335
     42 N         138.1494  146.6848  154.9544 N.ar    1  UNL1       -0.1261
     43 C         139.1482  147.7384  155.3317 C.ar    1  UNL1        0.1990
     44 N         140.1885  147.1000  156.2037 N.ar    1  UNL1       -0.3221
     45 H         140.9679  147.5520  156.6003 H       1  UNL1        0.1687
     46 C         139.1130  149.1778  154.9110 C.ar    1  UNL1        0.1988
     47 N         138.5415  150.2146  155.8320 N.ar    1  UNL1       -0.2224
     48 C         138.5062  151.6540  155.4112 C.ar    1  UNL1        0.1023
     49 C         139.0424  152.0565  154.0694 C.ar    1  UNL1        0.0414
     50 C         139.6140  151.0195  153.1483 C.ar    1  UNL1        0.1023
     51 N         139.6492  149.5803  153.5692 N.ar    1  UNL1       -0.2224
@<TRIPOS>BOND
     1    18    19    1
     2    19    17    1
     3    17    11    1
     4    11    12    1
     5    12    13    1
     6    13    14    1
     7    14     1    1
     8     1     2   ar
     9     2     3   ar
    10     3     4   ar
    11     4     5   ar
    12     5     6   ar
    13     6    21    1
    14    21    22   ar
    15    22    23   ar
    16    23    24   ar
    17    24    25   ar
    18    25    26   ar
    19     6     7   ar
    20     7    27    1
    21    27    28   ar
    22    28    29   ar
    23    29    30   ar
    24    30    33    1
    25    33    34    1
    26    34    35    1
    27    35    36    1
    28    36    37    1
    29    37    40    1
    30    40    41   ar
    31    41    42   ar
    32    42    43   ar
    33    43    46    1
    34    46    47   ar
    35    47    48   ar
    36    48    49   ar
    37    49    50   ar
    38    50    51   ar
    39    43    44   ar
    40    37    38    1
    41    38    39    1
    42    30    31   ar
    43    31    32   ar
    44     7     8   ar
    45     8     9   ar
    46     9    10   ar
    47    14    15    1
    48    15    16    1
    49    16    11    1
    50    10     1   ar
    51     9     4   ar
    52    26    21   ar
    53    32    27   ar
    54    39    34    1
    55    44    40   ar
    56    51    46   ar
    57    18    20    1
    58    44    45    1
@<TRIPOS>MOLECULE
*****
 51 58 0 0 0
SMALL
GASTEIGER

@<TRIPOS>ATOM
      1 C         143.0026  130.9370  156.6703 C.ar    1  UNL1        0.2216
      2 N         142.3560  130.6729  155.3429 N.ar    1  UNL1       -0.2120
      3 C         141.8027  131.8116  154.5384 C.ar    1  UNL1        0.1048
      4 C         141.8959  133.2144  155.0615 C.ar    1  UNL1        0.0551
      5 C         141.3425  134.3531  154.2570 C.ar    1  UNL1        0.0061
      6 C         141.4358  135.7559  154.7800 C.ar    1  UNL1        0.0179
      7 C         142.0824  136.0199  156.1075 C.ar    1  UNL1        0.0829
      8 N         142.6358  134.8812  156.9119 N.ar    1  UNL1       -0.2264
      9 C         142.5425  133.4785  156.3889 C.ar    1  UNL1        0.1666
     10 N         143.0959  132.3398  157.1933 N.ar    1  UNL1       -0.1945
     11 N         144.6629  127.5209  159.0837 N.3     1  UNL1       -0.2677
     12 C         143.4441  127.3160  158.2337 C.3     1  UNL1        0.0940
     13 C         142.8907  128.4547  157.4292 C.3     1  UNL1        0.1109
     14 N         143.5561  129.7983  157.4748 N.pl3   1  UNL1       -0.2753
     15 C         144.7748  130.0032  158.3249 C.3     1  UNL1        0.1109
     16 C         145.3282  128.8646  159.1293 C.3     1  UNL1        0.0940
     17 C         145.2163  126.3823  159.8882 C.3     1  UNL1        0.1043
     18 O         145.4922  127.8050  162.0446 O.3     1  UNL1       -0.3805
     19 C         145.2686  126.4768  161.3843 C.3     1  UNL1        0.1544
     20 H         145.4985  127.6903  163.0077 H       1  UNL1        0.2105
     21 C         140.8824  136.8946  153.9756 C.ar    1  UNL1        0.0015
     22 C         139.4391  137.2789  154.1140 C.ar    1  UNL1        0.0000
     23 C         138.8857  138.4176  153.3096 C.ar    1  UNL1        0.0000
     24 C         139.7756  139.1720  152.3667 C.ar    1  UNL1        0.0000
     25 C         141.2189  138.7877  152.2283 C.ar    1  UNL1        0.0000
     26 C         141.7723  137.6489  153.0327 C.ar    1  UNL1        0.0000
     27 C         142.1756  137.4227  156.6305 C.ar    1  UNL1        0.0177
     28 C         141.0683  137.9844  157.4722 C.ar    1  UNL1        0.0012
     29 C         141.1616  139.3872  157.9952 C.ar    1  UNL1       -0.0029
     30 C         142.3621  140.2282  157.6766 C.ar    1  UNL1       -0.0061
     31 C         143.4694  139.6664  156.8349 C.ar    1  UNL1       -0.0029
     32 C         143.3761  138.2637  156.3119 C.ar    1  UNL1        0.0012
     33 C         142.4554  141.6310  158.1996 C.3     1  UNL1        0.0991
     34 N         142.7074  141.8723  159.6585 N.3     1  UNL1       -0.2689
     35 C         141.5531  142.0039  160.6073 C.3     1  UNL1        0.0728
     36 C         141.8051  142.2452  162.0662 C.3     1  UNL1        0.0249
     37 C         143.2115  142.3548  162.5762 C.3     1  UNL1        0.0613
     38 C         144.3658  142.2232  161.6273 C.3     1  UNL1        0.0249
     39 C         144.1137  141.9819  160.1685 C.3     1  UNL1        0.0728
     40 C         143.4635  142.5961  164.0350 C.ar    1  UNL1        0.1397
     41 N         144.4329  143.5857  164.6105 N.ar    1  UNL1       -0.1335
     42 N         144.3590  143.4913  166.1057 N.ar    1  UNL1       -0.1261
     43 C         143.3439  142.4434  166.4543 C.ar    1  UNL1        0.1990
     44 N         142.7905  141.8901  165.1746 N.ar    1  UNL1       -0.3221
     45 H         142.1058  141.1871  165.0964 H       1  UNL1        0.1687
     46 C         142.9512  142.0226  167.8395 C.ar    1  UNL1        0.1988
     47 N         142.1118  140.7959  168.0411 N.ar    1  UNL1       -0.2224
     48 C         141.7191  140.3752  169.4263 C.ar    1  UNL1        0.1023
     49 C         142.1657  141.1811  170.6099 C.ar    1  UNL1        0.0414
     50 C         143.0051  142.4079  170.4083 C.ar    1  UNL1        0.1023
     51 N         143.3978  142.8286  169.0231 N.ar    1  UNL1       -0.2224
@<TRIPOS>BOND
     1    18    19    1
     2    19    17    1
     3    17    11    1
     4    11    12    1
     5    12    13    1
     6    13    14    1
     7    14     1    1
     8     1     2   ar
     9     2     3   ar
    10     3     4   ar
    11     4     5   ar
    12     5     6   ar
    13     6    21    1
    14    21    22   ar
    15    22    23   ar
    16    23    24   ar
    17    24    25   ar
    18    25    26   ar
    19     6     7   ar
    20     7    27    1
    21    27    28   ar
    22    28    29   ar
    23    29    30   ar
    24    30    33    1
    25    33    34    1
    26    34    35    1
    27    35    36    1
    28    36    37    1
    29    37    40    1
    30    40    41   ar
    31    41    42   ar
    32    42    43   ar
    33    43    46    1
    34    46    47   ar
    35    47    48   ar
    36    48    49   ar
    37    49    50   ar
    38    50    51   ar
    39    43    44   ar
    40    37    38    1
    41    38    39    1
    42    30    31   ar
    43    31    32   ar
    44     7     8   ar
    45     8     9   ar
    46     9    10   ar
    47    14    15    1
    48    15    16    1
    49    16    11    1
    50    10     1   ar
    51     9     4   ar
    52    26    21   ar
    53    32    27   ar
    54    39    34    1
    55    44    40   ar
    56    51    46   ar
    57    18    20    1
    58    44    45    1
@<TRIPOS>MOLECULE
*****
 51 58 0 0 0
SMALL
GASTEIGER

@<TRIPOS>ATOM
      1 C         142.6075  141.2717  164.5153 C.ar    1  UNL1        0.2216
      2 N         144.0887  141.3304  164.2865 N.ar    1  UNL1       -0.2120
      3 C         144.6309  141.3639  162.8883 C.ar    1  UNL1        0.1048
      4 C         143.6918  141.3386  161.7190 C.ar    1  UNL1        0.0551
      5 C         144.2340  141.3720  160.3207 C.ar    1  UNL1        0.0061
      6 C         143.2949  141.3467  159.1514 C.ar    1  UNL1        0.0179
      7 C         141.8136  141.2880  159.3802 C.ar    1  UNL1        0.0829
      8 N         141.2714  141.2546  160.7784 N.ar    1  UNL1       -0.2264
      9 C         142.2105  141.2798  161.9478 C.ar    1  UNL1        0.1666
     10 N         141.6684  141.2464  163.3459 N.ar    1  UNL1       -0.1945
     11 N         140.9809  141.1715  168.7099 N.3     1  UNL1       -0.2677
     12 C         140.2288  140.5027  167.5977 C.3     1  UNL1        0.0940
     13 C         140.7710  140.5361  166.1994 C.3     1  UNL1        0.1109
     14 N         142.0653  141.2383  165.9135 N.pl3   1  UNL1       -0.2753
     15 C         142.8174  141.9071  167.0258 C.3     1  UNL1        0.1109
     16 C         142.2752  141.8737  168.4239 C.3     1  UNL1        0.0940
     17 C         140.4387  141.1381  170.1081 C.3     1  UNL1        0.1043
     18 O         142.0254  142.2205  171.8576 O.3     1  UNL1       -0.3805
     19 C         140.7544  142.2521  171.0616 C.3     1  UNL1        0.1544
     20 H         142.0742  143.0091  172.4203 H       1  UNL1        0.2105
     21 C         143.8370  141.3801  157.7532 C.ar    1  UNL1        0.0015
     22 C         144.2110  140.1019  157.0630 C.ar    1  UNL1        0.0000
     23 C         144.7532  140.1353  155.6649 C.ar    1  UNL1        0.0000
     24 C         144.9214  141.4469  154.9568 C.ar    1  UNL1        0.0000
     25 C         144.5474  142.7251  155.6469 C.ar    1  UNL1        0.0000
     26 C         144.0052  142.6917  157.0451 C.ar    1  UNL1        0.0000
     27 C         140.8744  141.2627  158.2108 C.ar    1  UNL1        0.0177
     28 C         140.5034  139.9557  157.5750 C.ar    1  UNL1        0.0012
     29 C         139.5643  139.9304  156.4057 C.ar    1  UNL1       -0.0029
     30 C         138.9962  141.2121  155.8721 C.ar    1  UNL1       -0.0061
     31 C         139.3673  142.5190  156.5079 C.ar    1  UNL1       -0.0029
     32 C         140.3064  142.5443  157.6773 C.ar    1  UNL1        0.0012
     33 C         138.0571  141.1868  154.7027 C.3     1  UNL1        0.0991
     34 N         136.5779  141.0858  154.9308 N.3     1  UNL1       -0.2689
     35 C         135.6232  141.4511  153.8331 C.3     1  UNL1        0.0728
     36 C         134.1440  141.3501  154.0611 C.3     1  UNL1        0.0249
     37 C         133.6197  140.8838  155.3869 C.3     1  UNL1        0.0613
     38 C         134.5745  140.5185  156.4846 C.3     1  UNL1        0.0249
     39 C         136.0536  140.6195  156.2565 C.3     1  UNL1        0.0728
     40 C         132.1406  140.7828  155.6149 C.ar    1  UNL1        0.1397
     41 N         131.1162  141.8063  155.2236 N.ar    1  UNL1       -0.1335
     42 N         129.7687  141.2966  155.6412 N.ar    1  UNL1       -0.1261
     43 C         129.9603  139.9581  156.2906 C.ar    1  UNL1        0.1990
     44 N         131.4262  139.6406  156.2744 N.ar    1  UNL1       -0.3221
     45 H         131.8458  138.8256  156.6335 H       1  UNL1        0.1687
     46 C         128.8762  139.0896  156.8569 C.ar    1  UNL1        0.1988
     47 N         128.9883  137.5964  156.7681 N.ar    1  UNL1       -0.2224
     48 C         127.9043  136.7280  157.3343 C.ar    1  UNL1        0.1023
     49 C         126.7082  137.3526  157.9894 C.ar    1  UNL1        0.0414
     50 C         126.5961  138.8459  158.0781 C.ar    1  UNL1        0.1023
     51 N         127.6801  139.7143  157.5119 N.ar    1  UNL1       -0.2224
@<TRIPOS>BOND
     1    18    19    1
     2    19    17    1
     3    17    11    1
     4    11    12    1
     5    12    13    1
     6    13    14    1
     7    14     1    1
     8     1     2   ar
     9     2     3   ar
    10     3     4   ar
    11     4     5   ar
    12     5     6   ar
    13     6    21    1
    14    21    22   ar
    15    22    23   ar
    16    23    24   ar
    17    24    25   ar
    18    25    26   ar
    19     6     7   ar
    20     7    27    1
    21    27    28   ar
    22    28    29   ar
    23    29    30   ar
    24    30    33    1
    25    33    34    1
    26    34    35    1
    27    35    36    1
    28    36    37    1
    29    37    40    1
    30    40    41   ar
    31    41    42   ar
    32    42    43   ar
    33    43    46    1
    34    46    47   ar
    35    47    48   ar
    36    48    49   ar
    37    49    50   ar
    38    50    51   ar
    39    43    44   ar
    40    37    38    1
    41    38    39    1
    42    30    31   ar
    43    31    32   ar
    44     7     8   ar
    45     8     9   ar
    46     9    10   ar
    47    14    15    1
    48    15    16    1
    49    16    11    1
    50    10     1   ar
    51     9     4   ar
    52    26    21   ar
    53    32    27   ar
    54    39    34    1
    55    44    40   ar
    56    51    46   ar
    57    18    20    1
    58    44    45    1
