@<TRIPOS>MOLECULE
*****
 25 28 0 0 0
SMALL
GASTEIGER

@<TRIPOS>ATOM
      1 C         141.7914  143.3345  162.6532 C.ar    1  UNL1        0.0827
      2 C         142.9108  143.8814  163.4884 C.ar    1  UNL1        0.0192
      3 C         143.3089  143.1864  164.7567 C.ar    1  UNL1        0.0030
      4 C         142.5876  141.9445  165.1896 C.ar    1  UNL1        0.0174
      5 C         142.9858  141.2495  166.4579 C.ar    1  UNL1       -0.0027
      6 C         142.2644  140.0077  166.8909 C.ar    1  UNL1       -0.0207
      7 C         141.1449  139.4608  166.0556 C.ar    1  UNL1       -0.0027
      8 C         140.7468  140.1558  164.7873 C.ar    1  UNL1        0.0188
      9 C         141.4681  141.3977  164.3544 C.ar    1  UNL1        0.0812
     10 N         141.0700  142.0926  163.0861 N.ar    1  UNL1       -0.2453
     11 C         140.1986  146.1145  157.5802 C.3     1  UNL1        0.0521
     12 C         140.5968  145.4195  158.8484 C.ar    1  UNL1        0.0594
     13 C         141.7284  144.4349  158.8406 C.ar    1  UNL1        0.0148
     14 C         142.1266  143.7399  160.1089 C.ar    1  UNL1        0.0043
     15 C         141.3932  144.0295  161.3849 C.ar    1  UNL1        0.0368
     16 C         140.2616  145.0141  161.3926 C.ar    1  UNL1        0.0999
     17 N         139.8634  145.7090  160.1244 N.ar    1  UNL1       -0.2481
     18 C         142.6625  139.3127  168.1591 C.3     1  UNL1        0.0437
     19 C         142.0215  139.6990  169.4591 C.3     1  UNL1        0.0768
     20 N         141.5291  141.1008  169.6652 N.3     1  UNL1       -0.2737
     21 C         140.0934  141.5327  169.7144 C.3     1  UNL1        0.0721
     22 C         140.0629  143.0156  169.9378 C.3     1  UNL1        0.0187
     23 C         141.4797  143.5002  170.0266 C.3     1  UNL1        0.0174
     24 C         142.3858  142.3168  169.8581 C.3     1  UNL1        0.0576
     25 C         143.8854  142.3446  169.8789 C.3     1  UNL1        0.0173
@<TRIPOS>BOND
     1    11    12    1
     2    12    13   ar
     3    13    14   ar
     4    14    15   ar
     5    15     1    1
     6     1     2   ar
     7     2     3   ar
     8     3     4   ar
     9     4     5   ar
    10     5     6   ar
    11     6    18    1
    12    18    19    1
    13    19    20    1
    14    20    21    1
    15    21    22    1
    16    22    23    1
    17    23    24    1
    18    24    25    1
    19     6     7   ar
    20     7     8   ar
    21     8     9   ar
    22     9    10   ar
    23    15    16   ar
    24    16    17   ar
    25    17    12   ar
    26    10     1   ar
    27     9     4   ar
    28    24    20    1
@<TRIPOS>MOLECULE
*****
 25 28 0 0 0
SMALL
GASTEIGER

@<TRIPOS>ATOM
      1 C         141.3928  138.3831  159.6048 C.ar    1  UNL1        0.0827
      2 C         139.9047  138.5116  159.4673 C.ar    1  UNL1        0.0192
      3 C         139.0239  138.3535  160.6711 C.ar    1  UNL1        0.0030
      4 C         139.6312  138.0668  162.0124 C.ar    1  UNL1        0.0174
      5 C         138.7504  137.9087  163.2162 C.ar    1  UNL1       -0.0027
      6 C         139.3577  137.6221  164.5575 C.ar    1  UNL1       -0.0207
      7 C         140.8459  137.4936  164.6949 C.ar    1  UNL1       -0.0027
      8 C         141.7267  137.6517  163.4911 C.ar    1  UNL1        0.0188
      9 C         141.1194  137.9384  162.1498 C.ar    1  UNL1        0.0812
     10 N         142.0001  138.0965  160.9460 N.ar    1  UNL1       -0.2453
     11 C         144.9162  139.0156  154.7896 C.3     1  UNL1        0.0521
     12 C         144.0354  138.8575  155.9933 C.ar    1  UNL1        0.0594
     13 C         143.6263  140.0629  156.7869 C.ar    1  UNL1        0.0148
     14 C         142.7454  139.9048  157.9907 C.ar    1  UNL1        0.0043
     15 C         142.2737  138.5413  158.4009 C.ar    1  UNL1        0.0368
     16 C         142.6827  137.3359  157.6074 C.ar    1  UNL1        0.0999
     17 N         143.5636  137.4940  156.4036 N.ar    1  UNL1       -0.2481
     18 C         138.4769  137.4639  165.7612 C.3     1  UNL1        0.0437
     19 C         138.0300  138.6735  166.5277 C.3     1  UNL1        0.0768
     20 N         138.9526  139.8458  166.6835 N.3     1  UNL1       -0.2737
     21 C         139.9459  140.0452  167.7897 C.3     1  UNL1        0.0721
     22 C         140.6512  141.3472  167.5503 C.3     1  UNL1        0.0187
     23 C         140.0937  141.9526  166.2961 C.3     1  UNL1        0.0174
     24 C         139.0440  141.0246  165.7604 C.3     1  UNL1        0.0576
     25 C         138.2287  141.2380  164.5195 C.3     1  UNL1        0.0173
@<TRIPOS>BOND
     1    11    12    1
     2    12    13   ar
     3    13    14   ar
     4    14    15   ar
     5    15     1    1
     6     1     2   ar
     7     2     3   ar
     8     3     4   ar
     9     4     5   ar
    10     5     6   ar
    11     6    18    1
    12    18    19    1
    13    19    20    1
    14    20    21    1
    15    21    22    1
    16    22    23    1
    17    23    24    1
    18    24    25    1
    19     6     7   ar
    20     7     8   ar
    21     8     9   ar
    22     9    10   ar
    23    15    16   ar
    24    16    17   ar
    25    17    12   ar
    26    10     1   ar
    27     9     4   ar
    28    24    20    1
@<TRIPOS>MOLECULE
*****
 25 28 0 0 0
SMALL
GASTEIGER

@<TRIPOS>ATOM
      1 C         140.1840  138.7957  162.1292 C.ar    1  UNL1        0.0827
      2 C         139.2988  137.7417  162.7252 C.ar    1  UNL1        0.0192
      3 C         138.9316  137.8045  164.1782 C.ar    1  UNL1        0.0030
      4 C         139.4497  138.9213  165.0351 C.ar    1  UNL1        0.0174
      5 C         139.0825  138.9841  166.4882 C.ar    1  UNL1       -0.0027
      6 C         139.6006  140.1009  167.3451 C.ar    1  UNL1       -0.0207
      7 C         140.4859  141.1549  166.7490 C.ar    1  UNL1       -0.0027
      8 C         140.8531  141.0921  165.2960 C.ar    1  UNL1        0.0188
      9 C         140.3350  139.9753  164.4391 C.ar    1  UNL1        0.0812
     10 N         140.7021  139.9125  162.9861 N.ar    1  UNL1       -0.2453
     11 C         141.6527  138.5447  156.3171 C.3     1  UNL1        0.0521
     12 C         141.2855  138.6075  157.7701 C.ar    1  UNL1        0.0594
     13 C         142.3439  138.8684  158.8005 C.ar    1  UNL1        0.0148
     14 C         141.9767  138.9311  160.2535 C.ar    1  UNL1        0.0043
     15 C         140.5512  138.7330  160.6761 C.ar    1  UNL1        0.0368
     16 C         139.4928  138.4721  159.6457 C.ar    1  UNL1        0.0999
     17 N         139.8600  138.4093  158.1927 N.ar    1  UNL1       -0.2481
     18 C         139.2335  140.1637  168.7981 C.3     1  UNL1        0.0437
     19 C         140.2979  140.0337  169.8470 C.3     1  UNL1        0.0768
     20 N         141.4102  141.0377  169.9152 N.3     1  UNL1       -0.2737
     21 C         142.8662  140.7574  169.6882 C.3     1  UNL1        0.0721
     22 C         143.6177  142.0448  169.8551 C.3     1  UNL1        0.0187
     23 C         142.6261  143.1208  170.1853 C.3     1  UNL1        0.0174
     24 C         141.2618  142.4984  170.2224 C.3     1  UNL1        0.0576
     25 C         139.9751  143.2115  170.5153 C.3     1  UNL1        0.0173
@<TRIPOS>BOND
     1    11    12    1
     2    12    13   ar
     3    13    14   ar
     4    14    15   ar
     5    15     1    1
     6     1     2   ar
     7     2     3   ar
     8     3     4   ar
     9     4     5   ar
    10     5     6   ar
    11     6    18    1
    12    18    19    1
    13    19    20    1
    14    20    21    1
    15    21    22    1
    16    22    23    1
    17    23    24    1
    18    24    25    1
    19     6     7   ar
    20     7     8   ar
    21     8     9   ar
    22     9    10   ar
    23    15    16   ar
    24    16    17   ar
    25    17    12   ar
    26    10     1   ar
    27     9     4   ar
    28    24    20    1
@<TRIPOS>MOLECULE
*****
 25 28 0 0 0
SMALL
GASTEIGER

@<TRIPOS>ATOM
      1 C         142.4832  138.4884  159.7631 C.ar    1  UNL1        0.0827
      2 C         143.4017  138.2864  160.9316 C.ar    1  UNL1        0.0192
      3 C         142.8339  138.0507  162.2998 C.ar    1  UNL1        0.0030
      4 C         141.3476  138.0171  162.4995 C.ar    1  UNL1        0.0174
      5 C         140.7798  137.7814  163.8678 C.ar    1  UNL1       -0.0027
      6 C         139.2935  137.7477  164.0674 C.ar    1  UNL1       -0.0207
      7 C         138.3751  137.9497  162.8988 C.ar    1  UNL1       -0.0027
      8 C         138.9429  138.1854  161.5306 C.ar    1  UNL1        0.0188
      9 C         140.4291  138.2190  161.3309 C.ar    1  UNL1        0.0812
     10 N         140.9969  138.4547  159.9627 N.ar    1  UNL1       -0.2453
     11 C         144.7542  139.4309  154.2900 C.3     1  UNL1        0.0521
     12 C         144.1865  139.1953  155.6582 C.ar    1  UNL1        0.0594
     13 C         144.2115  140.2933  156.6799 C.ar    1  UNL1        0.0148
     14 C         143.6438  140.0576  158.0482 C.ar    1  UNL1        0.0043
     15 C         143.0510  138.7240  158.3948 C.ar    1  UNL1        0.0368
     16 C         143.0259  137.6261  157.3731 C.ar    1  UNL1        0.0999
     17 N         143.5937  137.8617  156.0049 N.ar    1  UNL1       -0.2481
     18 C         138.7258  137.5121  165.4356 C.3     1  UNL1        0.0437
     19 C         138.1742  138.6609  166.2269 C.3     1  UNL1        0.0768
     20 N         139.0055  139.8906  166.4428 N.3     1  UNL1       -0.2737
     21 C         139.9859  140.1077  167.5572 C.3     1  UNL1        0.0721
     22 C         140.5887  141.4704  167.3854 C.3     1  UNL1        0.0187
     23 C         139.9809  142.0956  166.1648 C.3     1  UNL1        0.0174
     24 C         139.0024  141.1192  165.5823 C.3     1  UNL1        0.0576
     25 C         138.1675  141.3339  164.3548 C.3     1  UNL1        0.0173
@<TRIPOS>BOND
     1    11    12    1
     2    12    13   ar
     3    13    14   ar
     4    14    15   ar
     5    15     1    1
     6     1     2   ar
     7     2     3   ar
     8     3     4   ar
     9     4     5   ar
    10     5     6   ar
    11     6    18    1
    12    18    19    1
    13    19    20    1
    14    20    21    1
    15    21    22    1
    16    22    23    1
    17    23    24    1
    18    24    25    1
    19     6     7   ar
    20     7     8   ar
    21     8     9   ar
    22     9    10   ar
    23    15    16   ar
    24    16    17   ar
    25    17    12   ar
    26    10     1   ar
    27     9     4   ar
    28    24    20    1
@<TRIPOS>MOLECULE
*****
 25 28 0 0 0
SMALL
GASTEIGER

@<TRIPOS>ATOM
      1 C         142.5221  138.3238  159.8382 C.ar    1  UNL1        0.0827
      2 C         143.7198  139.1626  160.1725 C.ar    1  UNL1        0.0192
      3 C         144.0969  139.3941  161.6057 C.ar    1  UNL1        0.0030
      4 C         143.2763  138.7869  162.7047 C.ar    1  UNL1        0.0174
      5 C         143.6534  139.0184  164.1379 C.ar    1  UNL1       -0.0027
      6 C         142.8328  138.4112  165.2369 C.ar    1  UNL1       -0.0207
      7 C         141.6349  137.5723  164.9026 C.ar    1  UNL1       -0.0027
      8 C         141.2578  137.3408  163.4694 C.ar    1  UNL1        0.0188
      9 C         142.0785  137.9481  162.3704 C.ar    1  UNL1        0.0812
     10 N         141.7014  137.7166  160.9372 N.ar    1  UNL1       -0.2453
     11 C         141.0135  137.3975  154.1053 C.3     1  UNL1        0.0521
     12 C         141.3906  137.6291  155.5385 C.ar    1  UNL1        0.0594
     13 C         140.8096  138.7909  156.2886 C.ar    1  UNL1        0.0148
     14 C         141.1868  139.0225  157.7219 C.ar    1  UNL1        0.0043
     15 C         142.1449  138.0923  158.4050 C.ar    1  UNL1        0.0368
     16 C         142.7259  136.9304  157.6549 C.ar    1  UNL1        0.0999
     17 N         142.3488  136.6989  156.2217 N.ar    1  UNL1       -0.2481
     18 C         143.2099  138.6427  166.6701 C.3     1  UNL1        0.0437
     19 C         142.4547  139.6450  167.4919 C.3     1  UNL1        0.0768
     20 N         141.6896  140.7444  166.8168 N.3     1  UNL1       -0.2737
     21 C         142.2692  142.0157  166.2711 C.3     1  UNL1        0.0721
     22 C         141.1483  142.8226  165.6859 C.3     1  UNL1        0.0187
     23 C         139.8758  142.0499  165.8700 C.3     1  UNL1        0.0174
     24 C         140.2104  140.7655  166.5689 C.3     1  UNL1        0.0576
     25 C         139.2366  139.6910  166.9525 C.3     1  UNL1        0.0173
@<TRIPOS>BOND
     1    11    12    1
     2    12    13   ar
     3    13    14   ar
     4    14    15   ar
     5    15     1    1
     6     1     2   ar
     7     2     3   ar
     8     3     4   ar
     9     4     5   ar
    10     5     6   ar
    11     6    18    1
    12    18    19    1
    13    19    20    1
    14    20    21    1
    15    21    22    1
    16    22    23    1
    17    23    24    1
    18    24    25    1
    19     6     7   ar
    20     7     8   ar
    21     8     9   ar
    22     9    10   ar
    23    15    16   ar
    24    16    17   ar
    25    17    12   ar
    26    10     1   ar
    27     9     4   ar
    28    24    20    1
@<TRIPOS>MOLECULE
*****
 25 28 0 0 0
SMALL
GASTEIGER

@<TRIPOS>ATOM
      1 C         141.5608  144.7109  160.2585 C.ar    1  UNL1        0.0827
      2 C         140.4459  144.9566  161.2315 C.ar    1  UNL1        0.0192
      3 C         140.6162  144.5888  162.6757 C.ar    1  UNL1        0.0030
      4 C         141.9013  143.9754  163.1469 C.ar    1  UNL1        0.0174
      5 C         142.0716  143.6076  164.5912 C.ar    1  UNL1       -0.0027
      6 C         143.3567  142.9941  165.0624 C.ar    1  UNL1       -0.0207
      7 C         144.4716  142.7484  164.0894 C.ar    1  UNL1       -0.0027
      8 C         144.3013  143.1162  162.6452 C.ar    1  UNL1        0.0188
      9 C         143.0162  143.7296  162.1740 C.ar    1  UNL1        0.0812
     10 N         142.8459  144.0974  160.7298 N.ar    1  UNL1       -0.2453
     11 C         140.8800  146.1819  154.4816 C.3     1  UNL1        0.0521
     12 C         141.0502  145.8142  155.9258 C.ar    1  UNL1        0.0594
     13 C         140.0253  146.2414  156.9343 C.ar    1  UNL1        0.0148
     14 C         140.1955  145.8737  158.3786 C.ar    1  UNL1        0.0043
     15 C         141.3906  145.0787  158.8143 C.ar    1  UNL1        0.0368
     16 C         142.4154  144.6514  157.8057 C.ar    1  UNL1        0.0999
     17 N         142.2452  145.0191  156.3615 N.ar    1  UNL1       -0.2481
     18 C         143.5270  142.6263  166.5066 C.3     1  UNL1        0.0437
     19 C         142.6323  141.5953  167.1285 C.3     1  UNL1        0.0768
     20 N         142.2518  140.3678  166.3551 N.3     1  UNL1       -0.2737
     21 C         143.1566  139.2177  166.0252 C.3     1  UNL1        0.0721
     22 C         142.3636  138.2139  165.2419 C.3     1  UNL1        0.0187
     23 C         140.9687  138.7436  165.0877 C.3     1  UNL1        0.0174
     24 C         140.8996  140.0747  165.7757 C.3     1  UNL1        0.0576
     25 C         139.6906  140.9577  165.8680 C.3     1  UNL1        0.0173
@<TRIPOS>BOND
     1    11    12    1
     2    12    13   ar
     3    13    14   ar
     4    14    15   ar
     5    15     1    1
     6     1     2   ar
     7     2     3   ar
     8     3     4   ar
     9     4     5   ar
    10     5     6   ar
    11     6    18    1
    12    18    19    1
    13    19    20    1
    14    20    21    1
    15    21    22    1
    16    22    23    1
    17    23    24    1
    18    24    25    1
    19     6     7   ar
    20     7     8   ar
    21     8     9   ar
    22     9    10   ar
    23    15    16   ar
    24    16    17   ar
    25    17    12   ar
    26    10     1   ar
    27     9     4   ar
    28    24    20    1
@<TRIPOS>MOLECULE
*****
 25 28 0 0 0
SMALL
GASTEIGER

@<TRIPOS>ATOM
      1 C         141.4307  144.1591  160.6403 C.ar    1  UNL1        0.0827
      2 C         140.2380  143.5177  161.2852 C.ar    1  UNL1        0.0192
      3 C         140.3326  143.0003  162.6899 C.ar    1  UNL1        0.0030
      4 C         141.6199  143.1244  163.4498 C.ar    1  UNL1        0.0174
      5 C         141.7145  142.6070  164.8546 C.ar    1  UNL1       -0.0027
      6 C         143.0018  142.7311  165.6144 C.ar    1  UNL1       -0.0207
      7 C         144.1946  143.3725  164.9695 C.ar    1  UNL1       -0.0027
      8 C         144.1000  143.8899  163.5647 C.ar    1  UNL1        0.0188
      9 C         142.8126  143.7658  162.8049 C.ar    1  UNL1        0.0812
     10 N         142.7180  144.2832  161.4001 N.ar    1  UNL1       -0.2453
     11 C         141.0524  146.2287  155.0212 C.3     1  UNL1        0.0521
     12 C         141.1470  145.7113  156.4259 C.ar    1  UNL1        0.0594
     13 C         142.2668  144.7911  156.8125 C.ar    1  UNL1        0.0148
     14 C         142.3613  144.2737  158.2173 C.ar    1  UNL1        0.0043
     15 C         141.3361  144.6765  159.2355 C.ar    1  UNL1        0.0368
     16 C         140.2164  145.5967  158.8489 C.ar    1  UNL1        0.0999
     17 N         140.1218  146.1141  157.4442 N.ar    1  UNL1       -0.2481
     18 C         143.0964  142.2137  167.0192 C.3     1  UNL1        0.0437
     19 C         142.5880  140.8415  167.3489 C.3     1  UNL1        0.0768
     20 N         141.4852  140.6711  168.3513 N.3     1  UNL1       -0.2737
     21 C         141.6343  140.7206  169.8431 C.3     1  UNL1        0.0721
     22 C         140.2809  140.5013  170.4516 C.3     1  UNL1        0.0187
     23 C         139.2955  140.3162  169.3359 C.3     1  UNL1        0.0174
     24 C         140.0398  140.4212  168.0379 C.3     1  UNL1        0.0576
     25 C         139.4434  140.2978  166.6671 C.3     1  UNL1        0.0173
@<TRIPOS>BOND
     1    11    12    1
     2    12    13   ar
     3    13    14   ar
     4    14    15   ar
     5    15     1    1
     6     1     2   ar
     7     2     3   ar
     8     3     4   ar
     9     4     5   ar
    10     5     6   ar
    11     6    18    1
    12    18    19    1
    13    19    20    1
    14    20    21    1
    15    21    22    1
    16    22    23    1
    17    23    24    1
    18    24    25    1
    19     6     7   ar
    20     7     8   ar
    21     8     9   ar
    22     9    10   ar
    23    15    16   ar
    24    16    17   ar
    25    17    12   ar
    26    10     1   ar
    27     9     4   ar
    28    24    20    1
@<TRIPOS>MOLECULE
*****
 25 28 0 0 0
SMALL
GASTEIGER

@<TRIPOS>ATOM
      1 C         138.5523  139.9131  160.3089 C.ar    1  UNL1        0.0827
      2 C         138.0262  141.1720  160.9321 C.ar    1  UNL1        0.0192
      3 C         137.8997  141.2746  162.4232 C.ar    1  UNL1        0.0030
      4 C         138.2994  140.1183  163.2911 C.ar    1  UNL1        0.0174
      5 C         138.1729  140.2209  164.7822 C.ar    1  UNL1       -0.0027
      6 C         138.5725  139.0646  165.6502 C.ar    1  UNL1       -0.0207
      7 C         139.0986  137.8057  165.0269 C.ar    1  UNL1       -0.0027
      8 C         139.2251  137.7031  163.5358 C.ar    1  UNL1        0.0188
      9 C         138.8255  138.8594  162.6679 C.ar    1  UNL1        0.0812
     10 N         138.9519  138.7568  161.1768 N.ar    1  UNL1       -0.2453
     11 C         139.0584  139.5026  154.3443 C.3     1  UNL1        0.0521
     12 C         138.9318  139.6053  155.8354 C.ar    1  UNL1        0.0594
     13 C         138.0150  140.6259  156.4418 C.ar    1  UNL1        0.0148
     14 C         137.8885  140.7285  157.9330 C.ar    1  UNL1        0.0043
     15 C         138.6788  139.8105  158.8177 C.ar    1  UNL1        0.0368
     16 C         139.5956  138.7899  158.2113 C.ar    1  UNL1        0.0999
     17 N         139.7221  138.6872  156.7202 N.ar    1  UNL1       -0.2481
     18 C         138.4460  139.1672  167.1413 C.3     1  UNL1        0.0437
     19 C         139.4995  139.8804  167.9361 C.3     1  UNL1        0.0768
     20 N         140.4672  140.7962  167.2471 N.3     1  UNL1       -0.2737
     21 C         140.2717  142.2632  167.0030 C.3     1  UNL1        0.0721
     22 C         141.4840  142.7795  166.2863 C.3     1  UNL1        0.0187
     23 C         142.4288  141.6315  166.0874 C.3     1  UNL1        0.0174
     24 C         141.8004  140.4058  166.6812 C.3     1  UNL1        0.0576
     25 C         142.4000  139.0311  166.7050 C.3     1  UNL1        0.0173
@<TRIPOS>BOND
     1    11    12    1
     2    12    13   ar
     3    13    14   ar
     4    14    15   ar
     5    15     1    1
     6     1     2   ar
     7     2     3   ar
     8     3     4   ar
     9     4     5   ar
    10     5     6   ar
    11     6    18    1
    12    18    19    1
    13    19    20    1
    14    20    21    1
    15    21    22    1
    16    22    23    1
    17    23    24    1
    18    24    25    1
    19     6     7   ar
    20     7     8   ar
    21     8     9   ar
    22     9    10   ar
    23    15    16   ar
    24    16    17   ar
    25    17    12   ar
    26    10     1   ar
    27     9     4   ar
    28    24    20    1
@<TRIPOS>MOLECULE
*****
 25 28 0 0 0
SMALL
GASTEIGER

@<TRIPOS>ATOM
      1 C         140.2852  144.0209  160.3607 C.ar    1  UNL1        0.0827
      2 C         141.6629  144.1487  160.9399 C.ar    1  UNL1        0.0192
      3 C         141.9172  143.7537  162.3644 C.ar    1  UNL1        0.0030
      4 C         140.7938  143.2311  163.2098 C.ar    1  UNL1        0.0174
      5 C         141.0481  142.8361  164.6344 C.ar    1  UNL1       -0.0027
      6 C         139.9247  142.3135  165.4798 C.ar    1  UNL1       -0.0207
      7 C         138.5469  142.1857  164.9006 C.ar    1  UNL1       -0.0027
      8 C         138.2926  142.5807  163.4760 C.ar    1  UNL1        0.0188
      9 C         139.4160  143.1033  162.6306 C.ar    1  UNL1        0.0812
     10 N         139.1617  143.4982  161.2061 N.ar    1  UNL1       -0.2453
     11 C         139.2677  145.6005  154.6625 C.3     1  UNL1        0.0521
     12 C         139.5221  145.2056  156.0870 C.ar    1  UNL1        0.0594
     13 C         140.1820  146.1710  157.0265 C.ar    1  UNL1        0.0148
     14 C         140.4364  145.7760  158.4511 C.ar    1  UNL1        0.0043
     15 C         140.0308  144.4158  158.9361 C.ar    1  UNL1        0.0368
     16 C         139.3708  143.4505  157.9967 C.ar    1  UNL1        0.0999
     17 N         139.1165  143.8454  156.5721 N.ar    1  UNL1       -0.2481
     18 C         140.1790  141.9186  166.9043 C.3     1  UNL1        0.0437
     19 C         140.5576  140.5052  167.2346 C.3     1  UNL1        0.0768
     20 N         140.3957  139.4254  166.2061 N.3     1  UNL1       -0.2737
     21 C         141.4537  138.9458  165.2572 C.3     1  UNL1        0.0721
     22 C         140.8592  137.8596  164.4105 C.3     1  UNL1        0.0187
     23 C         139.4337  137.6680  164.8362 C.3     1  UNL1        0.0174
     24 C         139.1472  138.6357  165.9459 C.3     1  UNL1        0.0576
     25 C         137.8415  138.7872  166.6685 C.3     1  UNL1        0.0173
@<TRIPOS>BOND
     1    11    12    1
     2    12    13   ar
     3    13    14   ar
     4    14    15   ar
     5    15     1    1
     6     1     2   ar
     7     2     3   ar
     8     3     4   ar
     9     4     5   ar
    10     5     6   ar
    11     6    18    1
    12    18    19    1
    13    19    20    1
    14    20    21    1
    15    21    22    1
    16    22    23    1
    17    23    24    1
    18    24    25    1
    19     6     7   ar
    20     7     8   ar
    21     8     9   ar
    22     9    10   ar
    23    15    16   ar
    24    16    17   ar
    25    17    12   ar
    26    10     1   ar
    27     9     4   ar
    28    24    20    1
