@<TRIPOS>MOLECULE
*****
 41 44 0 0 0
SMALL
GASTEIGER

@<TRIPOS>ATOM
      1 C         138.0170  141.2494  155.8452 C.3     1  UNL1        0.0317
      2 C         138.6427  139.8899  155.7447 C.ar    1  UNL1       -0.0141
      3 C         138.8418  139.2533  154.4011 C.ar    1  UNL1       -0.0024
      4 C         139.4674  137.8938  154.3005 C.ar    1  UNL1        0.0144
      5 C         139.8941  137.1707  155.5436 C.ar    1  UNL1        0.0511
      6 C         139.6951  137.8072  156.8871 C.ar    1  UNL1        0.0226
      7 C         139.0694  139.1668  156.9877 C.ar    1  UNL1        0.0393
      8 N         140.5199  135.8112  155.4430 N.am    1  UNL1       -0.2804
      9 C         142.0129  135.6742  155.3985 C.2     1  UNL1        0.2495
     10 O         142.8803  136.8967  155.4546 O.2     1  UNL1       -0.2698
     11 H         139.9506  135.0088  155.4062 H       1  UNL1        0.1552
     12 C         142.6386  134.3146  155.2980 C.ar    1  UNL1        0.0536
     13 C         142.3647  133.4493  154.1038 C.ar    1  UNL1        0.0045
     14 C         142.9904  132.0898  154.0033 C.ar    1  UNL1        0.0001
     15 C         143.8901  131.5955  155.0970 C.ar    1  UNL1        0.0039
     16 C         144.1641  132.4607  156.2912 C.ar    1  UNL1        0.0716
     17 C         143.5383  133.8203  156.3917 C.ar    1  UNL1        0.0084
     18 C         145.0637  131.9665  157.3849 C.3     1  UNL1        0.4186
     19 F         145.9634  131.4725  158.4788 F       1  UNL1       -0.1659
     20 F         144.8300  133.2352  158.1504 F       1  UNL1       -0.1659
     21 F         145.2976  130.6979  156.6195 F       1  UNL1       -0.1659
     22 C         138.8703  139.8033  158.3313 C.1     1  UNL1       -0.0585
     23 C         138.6713  140.4398  159.6749 C.1     1  UNL1       -0.0386
     24 C         138.4722  141.0763  161.0185 C.ar    1  UNL1        0.1481
     25 N         138.2449  142.5361  161.2775 N.ar    1  UNL1       -0.1595
     26 N         138.0977  142.7267  162.7581 N.ar    1  UNL1       -0.2333
     27 C         138.2341  141.3847  163.4141 C.ar    1  UNL1        0.1659
     28 N         138.1775  140.9597  164.8515 N.ar    1  UNL1       -0.2050
     29 C         138.3523  139.5147  165.2137 C.ar    1  UNL1        0.2014
     30 N         138.5838  138.4947  164.1386 N.ar    1  UNL1       -0.2093
     31 C         138.6404  138.9196  162.7012 C.ar    1  UNL1        0.1322
     32 N         138.8719  137.8996  161.6261 N.pl3   1  UNL1       -0.3424
     33 C         138.4656  140.3646  162.3389 C.ar    1  UNL1        0.0938
     34 H         138.9867  136.9511  161.8639 H       1  UNL1        0.1437
     35 H         138.9091  138.1785  160.6827 H       1  UNL1        0.1437
     36 C         137.8565  144.0305  163.4595 C.3     1  UNL1        0.1316
     37 C         138.8536  144.5412  164.4571 C.3     1  UNL1        0.0538
     38 C         138.3870  145.0672  165.7821 C.3     1  UNL1        0.0046
     39 C         140.3174  144.5259  164.1296 C.3     1  UNL1        0.1391
     40 O         140.9974  145.7832  163.6751 O.3     1  UNL1       -0.3819
     41 H         140.6411  146.0501  162.8132 H       1  UNL1        0.2104
@<TRIPOS>BOND
     1     1     2    1
     2     2     3   ar
     3     3     4   ar
     4     4     5   ar
     5     5     8    1
     6     8     9   am
     7     9    10    2
     8     9    12    1
     9    12    13   ar
    10    13    14   ar
    11    14    15   ar
    12    15    16   ar
    13    16    18    1
    14    18    19    1
    15    18    20    1
    16    18    21    1
    17    16    17   ar
    18     5     6   ar
    19     6     7   ar
    20     7    22    1
    21    22    23    3
    22    23    24    1
    23    24    25   ar
    24    25    26   ar
    25    26    36    1
    26    36    37    1
    27    37    38    1
    28    37    39    1
    29    39    40    1
    30    26    27   ar
    31    27    28   ar
    32    28    29   ar
    33    29    30   ar
    34    30    31   ar
    35    31    32    1
    36    31    33   ar
    37     7     2   ar
    38    33    24   ar
    39    17    12   ar
    40    33    27   ar
    41     8    11    1
    42    40    41    1
    43    32    34    1
    44    32    35    1
@<TRIPOS>MOLECULE
*****
 41 44 0 0 0
SMALL
GASTEIGER

@<TRIPOS>ATOM
      1 C         144.4938  142.2646  159.2007 C.3     1  UNL1        0.0317
      2 C         144.2545  141.9355  160.6444 C.ar    1  UNL1       -0.0141
      3 C         144.6592  142.9080  161.7124 C.ar    1  UNL1       -0.0024
      4 C         144.4199  142.5790  163.1561 C.ar    1  UNL1        0.0144
      5 C         143.7758  141.2774  163.5320 C.ar    1  UNL1        0.0511
      6 C         143.3711  140.3050  162.4640 C.ar    1  UNL1        0.0226
      7 C         143.6105  140.6340  161.0203 C.ar    1  UNL1        0.0393
      8 N         143.5365  140.9484  164.9758 N.am    1  UNL1       -0.2804
      9 C         142.3205  141.4802  165.6746 C.2     1  UNL1        0.2495
     10 O         141.3438  142.3411  164.9297 O.2     1  UNL1       -0.2698
     11 H         144.1775  140.3833  165.4647 H       1  UNL1        0.1552
     12 C         142.0812  141.1512  167.1183 C.ar    1  UNL1        0.0536
     13 C         142.6705  139.9058  167.7115 C.ar    1  UNL1        0.0045
     14 C         142.4312  139.5768  169.1552 C.ar    1  UNL1        0.0001
     15 C         141.6024  140.4931  170.0059 C.ar    1  UNL1        0.0039
     16 C         141.0131  141.7384  169.4129 C.ar    1  UNL1        0.0716
     17 C         141.2524  142.0674  167.9690 C.ar    1  UNL1        0.0084
     18 C         140.1844  142.6547  170.2634 C.3     1  UNL1        0.4186
     19 F         139.3556  143.5710  171.1141 F       1  UNL1       -0.1659
     20 F         140.3834  141.7439  171.4385 F       1  UNL1       -0.1659
     21 F         139.9853  143.5656  169.0884 F       1  UNL1       -0.1659
     22 C         143.2058  139.6616  159.9523 C.1     1  UNL1       -0.0585
     23 C         142.8011  138.6890  158.8844 C.1     1  UNL1       -0.0386
     24 C         142.3964  137.7166  157.8164 C.ar    1  UNL1        0.1481
     25 N         143.2088  136.5535  157.3293 N.ar    1  UNL1       -0.1595
     26 N         142.4227  135.8546  156.2599 N.ar    1  UNL1       -0.2333
     27 C         141.1245  136.5857  156.0861 C.ar    1  UNL1        0.1659
     28 N         139.9551  136.3522  155.1762 N.ar    1  UNL1       -0.2050
     29 C         138.7695  137.2695  155.2283 C.ar    1  UNL1        0.2014
     30 N         138.7532  138.4203  156.1903 N.ar    1  UNL1       -0.2093
     31 C         139.9226  138.6538  157.1002 C.ar    1  UNL1        0.1322
     32 N         139.9064  139.8045  158.0622 N.pl3   1  UNL1       -0.3424
     33 C         141.1083  137.7365  157.0481 C.ar    1  UNL1        0.0938
     34 H         139.1282  140.4066  158.0964 H       1  UNL1        0.1437
     35 H         140.6739  139.9578  158.6594 H       1  UNL1        0.1437
     36 C         142.8583  134.6381  155.4980 C.3     1  UNL1        0.1316
     37 C         142.4457  133.2734  155.9644 C.3     1  UNL1        0.0538
     38 C         141.3668  132.5268  155.2374 C.3     1  UNL1        0.0046
     39 C         143.1120  132.6554  157.1577 C.3     1  UNL1        0.1391
     40 O         143.8276  133.5230  158.1503 O.3     1  UNL1       -0.3819
     41 H         144.5992  133.9304  157.7265 H       1  UNL1        0.2104
@<TRIPOS>BOND
     1     1     2    1
     2     2     3   ar
     3     3     4   ar
     4     4     5   ar
     5     5     8    1
     6     8     9   am
     7     9    10    2
     8     9    12    1
     9    12    13   ar
    10    13    14   ar
    11    14    15   ar
    12    15    16   ar
    13    16    18    1
    14    18    19    1
    15    18    20    1
    16    18    21    1
    17    16    17   ar
    18     5     6   ar
    19     6     7   ar
    20     7    22    1
    21    22    23    3
    22    23    24    1
    23    24    25   ar
    24    25    26   ar
    25    26    36    1
    26    36    37    1
    27    37    38    1
    28    37    39    1
    29    39    40    1
    30    26    27   ar
    31    27    28   ar
    32    28    29   ar
    33    29    30   ar
    34    30    31   ar
    35    31    32    1
    36    31    33   ar
    37     7     2   ar
    38    33    24   ar
    39    17    12   ar
    40    33    27   ar
    41     8    11    1
    42    40    41    1
    43    32    34    1
    44    32    35    1
@<TRIPOS>MOLECULE
*****
 41 44 0 0 0
SMALL
GASTEIGER

@<TRIPOS>ATOM
      1 C         140.6352  143.7667  158.5350 C.3     1  UNL1        0.0317
      2 C         141.0137  143.6612  159.9826 C.ar    1  UNL1       -0.0141
      3 C         140.8956  144.8589  160.8780 C.ar    1  UNL1       -0.0024
      4 C         141.2741  144.7534  162.3255 C.ar    1  UNL1        0.0144
      5 C         141.7707  143.4502  162.8779 C.ar    1  UNL1        0.0511
      6 C         141.8888  142.2525  161.9826 C.ar    1  UNL1        0.0226
      7 C         141.5103  142.3580  160.5350 C.ar    1  UNL1        0.0393
      8 N         142.1492  143.3447  164.3255 N.am    1  UNL1       -0.2804
      9 C         141.1793  142.7687  165.3143 C.2     1  UNL1        0.2495
     10 O         139.8310  142.2982  164.8554 O.2     1  UNL1       -0.2698
     11 H         143.0342  143.6535  164.6267 H       1  UNL1        0.1552
     12 C         141.5578  142.6632  166.7619 C.ar    1  UNL1        0.0536
     13 C         142.9458  142.2435  167.1456 C.ar    1  UNL1        0.0045
     14 C         143.3243  142.1380  168.5932 C.ar    1  UNL1        0.0001
     15 C         142.3147  142.4522  169.6572 C.ar    1  UNL1        0.0039
     16 C         140.9267  142.8719  169.2736 C.ar    1  UNL1        0.0716
     17 C         140.5483  142.9774  167.8259 C.ar    1  UNL1        0.0084
     18 C         139.9171  143.1861  170.3375 C.3     1  UNL1        0.4186
     19 F         138.9074  143.5002  171.4014 F       1  UNL1       -0.1659
     20 F         139.5888  141.7273  170.4567 F       1  UNL1       -0.1659
     21 F         140.2454  144.6449  170.2183 F       1  UNL1       -0.1659
     22 C         141.6284  141.1603  159.6397 C.1     1  UNL1       -0.0585
     23 C         141.7465  139.9626  158.7444 C.1     1  UNL1       -0.0386
     24 C         141.8646  138.7649  157.8491 C.ar    1  UNL1        0.1481
     25 N         143.0798  137.9004  157.6887 N.ar    1  UNL1       -0.1595
     26 N         142.7544  136.8227  156.6974 N.ar    1  UNL1       -0.2333
     27 C         141.3380  137.0210  156.2452 C.ar    1  UNL1        0.1659
     28 N         140.4780  136.2638  155.2773 N.ar    1  UNL1       -0.2050
     29 C         139.0681  136.7069  155.0212 C.ar    1  UNL1        0.2014
     30 N         138.5181  137.9072  155.7330 N.ar    1  UNL1       -0.2093
     31 C         139.3781  138.6645  156.7009 C.ar    1  UNL1        0.1322
     32 N         138.8281  139.8649  157.4126 N.pl3   1  UNL1       -0.3424
     33 C         140.7880  138.2214  156.9570 C.ar    1  UNL1        0.0938
     34 H         137.9027  140.1557  157.2445 H       1  UNL1        0.1437
     35 H         139.3926  140.3619  158.0479 H       1  UNL1        0.1437
     36 C         143.6824  135.7371  156.2389 C.3     1  UNL1        0.1316
     37 C         143.4173  134.3116  156.6235 C.3     1  UNL1        0.0538
     38 C         143.9215  133.7820  157.9333 C.3     1  UNL1        0.0046
     39 C         142.6481  133.4158  155.6985 C.3     1  UNL1        0.1391
     40 O         141.1493  133.3913  155.7523 O.3     1  UNL1       -0.3819
     41 H         140.8623  133.0288  156.6051 H       1  UNL1        0.2104
@<TRIPOS>BOND
     1     1     2    1
     2     2     3   ar
     3     3     4   ar
     4     4     5   ar
     5     5     8    1
     6     8     9   am
     7     9    10    2
     8     9    12    1
     9    12    13   ar
    10    13    14   ar
    11    14    15   ar
    12    15    16   ar
    13    16    18    1
    14    18    19    1
    15    18    20    1
    16    18    21    1
    17    16    17   ar
    18     5     6   ar
    19     6     7   ar
    20     7    22    1
    21    22    23    3
    22    23    24    1
    23    24    25   ar
    24    25    26   ar
    25    26    36    1
    26    36    37    1
    27    37    38    1
    28    37    39    1
    29    39    40    1
    30    26    27   ar
    31    27    28   ar
    32    28    29   ar
    33    29    30   ar
    34    30    31   ar
    35    31    32    1
    36    31    33   ar
    37     7     2   ar
    38    33    24   ar
    39    17    12   ar
    40    33    27   ar
    41     8    11    1
    42    40    41    1
    43    32    34    1
    44    32    35    1
@<TRIPOS>MOLECULE
*****
 41 44 0 0 0
SMALL
GASTEIGER

@<TRIPOS>ATOM
      1 C         140.8374  145.2602  158.7850 C.3     1  UNL1        0.0317
      2 C         141.0832  144.9030  160.2209 C.ar    1  UNL1       -0.0141
      3 C         140.3563  145.6340  161.3106 C.ar    1  UNL1       -0.0024
      4 C         140.6020  145.2769  162.7465 C.ar    1  UNL1        0.0144
      5 C         141.5747  144.1887  163.0930 C.ar    1  UNL1        0.0511
      6 C         142.3016  143.4578  162.0033 C.ar    1  UNL1        0.0226
      7 C         142.0558  143.8150  160.5673 C.ar    1  UNL1        0.0393
      8 N         141.8204  143.8316  164.5289 N.am    1  UNL1       -0.2804
      9 C         141.2179  142.5847  165.1053 C.2     1  UNL1        0.2495
     10 O         140.3696  141.6950  164.2458 O.2     1  UNL1       -0.2698
     11 H         142.3772  144.4155  165.0931 H       1  UNL1        0.1552
     12 C         141.4636  142.2275  166.5413 C.ar    1  UNL1        0.0536
     13 C         142.5707  141.2811  166.8999 C.ar    1  UNL1        0.0045
     14 C         142.8165  140.9240  168.3359 C.ar    1  UNL1        0.0001
     15 C         141.9551  141.5132  169.4133 C.ar    1  UNL1        0.0039
     16 C         140.8480  142.4596  169.0548 C.ar    1  UNL1        0.0716
     17 C         140.6023  142.8168  167.6187 C.ar    1  UNL1        0.0084
     18 C         139.9866  143.0489  170.1321 C.3     1  UNL1        0.4186
     19 F         139.1253  143.6383  171.2094 F       1  UNL1       -0.1659
     20 F         140.6929  144.3633  169.9778 F       1  UNL1       -0.1659
     21 F         139.2804  141.7346  170.2865 F       1  UNL1       -0.1659
     22 C         142.7827  143.0840  159.4777 C.1     1  UNL1       -0.0585
     23 C         143.5096  142.3531  158.3879 C.1     1  UNL1       -0.0386
     24 C         144.2365  141.6222  157.2982 C.ar    1  UNL1        0.1481
     25 N         145.2735  142.2057  156.3849 N.ar    1  UNL1       -0.1595
     26 N         145.7318  141.1235  155.4528 N.ar    1  UNL1       -0.2333
     27 C         144.9782  139.8712  155.7901 C.ar    1  UNL1        0.1659
     28 N         145.0141  138.4901  155.2060 N.ar    1  UNL1       -0.2050
     29 C         144.1257  137.4172  155.7625 C.ar    1  UNL1        0.2014
     30 N         143.2015  137.7254  156.9030 N.ar    1  UNL1       -0.2093
     31 C         143.1656  139.1065  157.4871 C.ar    1  UNL1        0.1322
     32 N         142.2414  139.4147  158.6276 N.pl3   1  UNL1       -0.3424
     33 C         144.0540  140.1794  156.9306 C.ar    1  UNL1        0.0938
     34 H         141.6584  138.7105  158.9929 H       1  UNL1        0.1437
     35 H         142.2179  140.3212  159.0110 H       1  UNL1        0.1437
     36 C         146.7629  141.2682  154.3730 C.3     1  UNL1        0.1316
     37 C         147.8974  142.2346  154.5439 C.3     1  UNL1        0.0538
     38 C         149.1616  141.7949  155.2210 C.3     1  UNL1        0.0046
     39 C         147.7677  143.6407  154.0378 C.3     1  UNL1        0.1391
     40 O         146.6475  144.5121  154.5231 O.3     1  UNL1       -0.3819
     41 H         145.8009  144.1508  154.2171 H       1  UNL1        0.2104
@<TRIPOS>BOND
     1     1     2    1
     2     2     3   ar
     3     3     4   ar
     4     4     5   ar
     5     5     8    1
     6     8     9   am
     7     9    10    2
     8     9    12    1
     9    12    13   ar
    10    13    14   ar
    11    14    15   ar
    12    15    16   ar
    13    16    18    1
    14    18    19    1
    15    18    20    1
    16    18    21    1
    17    16    17   ar
    18     5     6   ar
    19     6     7   ar
    20     7    22    1
    21    22    23    3
    22    23    24    1
    23    24    25   ar
    24    25    26   ar
    25    26    36    1
    26    36    37    1
    27    37    38    1
    28    37    39    1
    29    39    40    1
    30    26    27   ar
    31    27    28   ar
    32    28    29   ar
    33    29    30   ar
    34    30    31   ar
    35    31    32    1
    36    31    33   ar
    37     7     2   ar
    38    33    24   ar
    39    17    12   ar
    40    33    27   ar
    41     8    11    1
    42    40    41    1
    43    32    34    1
    44    32    35    1
@<TRIPOS>MOLECULE
*****
 41 44 0 0 0
SMALL
GASTEIGER

@<TRIPOS>ATOM
      1 C         141.8929  138.2586  158.9223 C.3     1  UNL1        0.0317
      2 C         141.5821  138.5070  160.3686 C.ar    1  UNL1       -0.0141
      3 C         142.4716  137.9398  161.4350 C.ar    1  UNL1       -0.0024
      4 C         142.1609  138.1881  162.8812 C.ar    1  UNL1        0.0144
      5 C         140.9606  139.0036  163.2612 C.ar    1  UNL1        0.0511
      6 C         140.0711  139.5708  162.1948 C.ar    1  UNL1        0.0226
      7 C         140.3819  139.3224  160.7485 C.ar    1  UNL1        0.0393
      8 N         140.6498  139.2520  164.7075 N.am    1  UNL1       -0.2804
      9 C         141.1973  140.4680  165.3941 C.2     1  UNL1        0.2495
     10 O         142.0556  141.4356  164.6345 O.2     1  UNL1       -0.2698
     11 H         140.0864  138.6169  165.2060 H       1  UNL1        0.1552
     12 C         140.8865  140.7164  166.8404 C.ar    1  UNL1        0.0536
     13 C         139.6980  140.0581  167.4759 C.ar    1  UNL1        0.0045
     14 C         139.3872  140.3064  168.9222 C.ar    1  UNL1        0.0001
     15 C         140.2649  141.2131  169.7330 C.ar    1  UNL1        0.0039
     16 C         141.4535  141.8715  169.0976 C.ar    1  UNL1        0.0716
     17 C         141.7643  141.6231  167.6512 C.ar    1  UNL1        0.0084
     18 C         142.3313  142.7782  169.9082 C.3     1  UNL1        0.4186
     19 F         143.2091  143.6850  170.7189 F       1  UNL1       -0.1659
     20 F         141.2373  143.8037  169.9457 F       1  UNL1       -0.1659
     21 F         143.4254  141.7526  169.8708 F       1  UNL1       -0.1659
     22 C         139.4924  139.8895  159.6821 C.1     1  UNL1       -0.0585
     23 C         138.6029  140.4566  158.6156 C.1     1  UNL1       -0.0386
     24 C         137.7134  141.0237  157.5492 C.ar    1  UNL1        0.1481
     25 N         136.4821  140.3742  156.9906 N.ar    1  UNL1       -0.1595
     26 N         135.9069  141.2890  155.9504 N.ar    1  UNL1       -0.2333
     27 C         136.7826  142.5039  155.8660 C.ar    1  UNL1        0.1659
     28 N         136.7076  143.7382  155.0171 N.ar    1  UNL1       -0.2050
     29 C         137.7491  144.8086  155.1564 C.ar    1  UNL1        0.2014
     30 N         138.8656  144.6447  156.1445 N.ar    1  UNL1       -0.2093
     31 C         138.9406  143.4103  156.9934 C.ar    1  UNL1        0.1322
     32 N         140.0572  143.2464  157.9816 N.pl3   1  UNL1       -0.3424
     33 C         137.8991  142.3399  156.8542 C.ar    1  UNL1        0.0938
     34 H         140.7408  143.9489  158.0730 H       1  UNL1        0.1437
     35 H         140.1064  142.4362  158.5388 H       1  UNL1        0.1437
     36 C         134.6725  141.0337  155.1372 C.3     1  UNL1        0.1316
     37 C         133.4211  140.5470  155.8060 C.3     1  UNL1        0.0538
     38 C         132.1717  141.3754  155.7534 C.3     1  UNL1        0.0046
     39 C         133.4191  139.2318  156.5273 C.3     1  UNL1        0.1391
     40 O         133.8332  139.1656  157.9675 O.3     1  UNL1       -0.3819
     41 H         134.7735  139.3914  158.0442 H       1  UNL1        0.2104
@<TRIPOS>BOND
     1     1     2    1
     2     2     3   ar
     3     3     4   ar
     4     4     5   ar
     5     5     8    1
     6     8     9   am
     7     9    10    2
     8     9    12    1
     9    12    13   ar
    10    13    14   ar
    11    14    15   ar
    12    15    16   ar
    13    16    18    1
    14    18    19    1
    15    18    20    1
    16    18    21    1
    17    16    17   ar
    18     5     6   ar
    19     6     7   ar
    20     7    22    1
    21    22    23    3
    22    23    24    1
    23    24    25   ar
    24    25    26   ar
    25    26    36    1
    26    36    37    1
    27    37    38    1
    28    37    39    1
    29    39    40    1
    30    26    27   ar
    31    27    28   ar
    32    28    29   ar
    33    29    30   ar
    34    30    31   ar
    35    31    32    1
    36    31    33   ar
    37     7     2   ar
    38    33    24   ar
    39    17    12   ar
    40    33    27   ar
    41     8    11    1
    42    40    41    1
    43    32    34    1
    44    32    35    1
@<TRIPOS>MOLECULE
*****
 41 44 0 0 0
SMALL
GASTEIGER

@<TRIPOS>ATOM
      1 C         138.6767  141.3426  156.8954 C.3     1  UNL1        0.0317
      2 C         139.1766  139.9625  156.5862 C.ar    1  UNL1       -0.0141
      3 C         139.4343  139.5592  155.1646 C.ar    1  UNL1       -0.0024
      4 C         139.9342  138.1793  154.8553 C.ar    1  UNL1        0.0144
      5 C         140.1763  137.2024  155.9677 C.ar    1  UNL1        0.0511
      6 C         139.9186  137.6057  157.3893 C.ar    1  UNL1        0.0226
      7 C         139.4187  138.9858  157.6985 C.ar    1  UNL1        0.0393
      8 N         140.6762  135.8224  155.6584 N.am    1  UNL1       -0.2804
      9 C         142.0896  135.4449  155.9899 C.2     1  UNL1        0.2495
     10 O         143.0031  136.4474  156.6305 O.2     1  UNL1       -0.2698
     11 H         140.0766  135.1644  155.2380 H       1  UNL1        0.1552
     12 C         142.5894  134.0649  155.6806 C.ar    1  UNL1        0.0536
     13 C         142.4675  133.5172  154.2896 C.ar    1  UNL1        0.0045
     14 C         142.9673  132.1371  153.9803 C.ar    1  UNL1        0.0001
     15 C         143.5892  131.3047  155.0622 C.ar    1  UNL1        0.0039
     16 C         143.7112  131.8524  156.4533 C.ar    1  UNL1        0.0716
     17 C         143.2112  133.2325  156.7625 C.ar    1  UNL1        0.0084
     18 C         144.3329  131.0201  157.5352 C.3     1  UNL1        0.4186
     19 F         144.9548  130.1879  158.6172 F       1  UNL1       -0.1659
     20 F         145.1757  132.1895  157.9504 F       1  UNL1       -0.1659
     21 F         143.4902  129.8507  157.1201 F       1  UNL1       -0.1659
     22 C         139.1610  139.3891  159.1201 C.1     1  UNL1       -0.0585
     23 C         138.9033  139.7925  160.5417 C.1     1  UNL1       -0.0386
     24 C         138.6455  140.1958  161.9633 C.ar    1  UNL1        0.1481
     25 N         138.6519  139.2831  163.1537 N.ar    1  UNL1       -0.1595
     26 N         138.3465  140.1059  164.3701 N.ar    1  UNL1       -0.2333
     27 C         138.1513  141.5270  163.9316 C.ar    1  UNL1        0.1659
     28 N         137.8292  142.7776  164.6945 N.ar    1  UNL1       -0.2050
     29 C         137.6919  144.0838  163.9700 C.ar    1  UNL1        0.2014
     30 N         137.8767  144.1393  162.4824 N.ar    1  UNL1       -0.2093
     31 C         138.1989  142.8887  161.7195 C.ar    1  UNL1        0.1322
     32 N         138.3837  142.9443  160.2319 N.pl3   1  UNL1       -0.3424
     33 C         138.3361  141.5826  162.4440 C.ar    1  UNL1        0.0938
     34 H         138.2936  143.8016  159.7564 H       1  UNL1        0.1437
     35 H         138.5951  142.1235  159.7312 H       1  UNL1        0.1437
     36 C         138.2527  139.5969  165.7780 C.3     1  UNL1        0.1316
     37 C         139.4406  139.6887  166.6894 C.3     1  UNL1        0.0538
     38 C         139.2439  139.9423  168.1547 C.3     1  UNL1        0.0046
     39 C         140.8251  139.5268  166.1356 C.3     1  UNL1        0.1391
     40 O         141.9900  139.3579  167.0654 O.3     1  UNL1       -0.3819
     41 H         142.1146  140.1715  167.5786 H       1  UNL1        0.2104
@<TRIPOS>BOND
     1     1     2    1
     2     2     3   ar
     3     3     4   ar
     4     4     5   ar
     5     5     8    1
     6     8     9   am
     7     9    10    2
     8     9    12    1
     9    12    13   ar
    10    13    14   ar
    11    14    15   ar
    12    15    16   ar
    13    16    18    1
    14    18    19    1
    15    18    20    1
    16    18    21    1
    17    16    17   ar
    18     5     6   ar
    19     6     7   ar
    20     7    22    1
    21    22    23    3
    22    23    24    1
    23    24    25   ar
    24    25    26   ar
    25    26    36    1
    26    36    37    1
    27    37    38    1
    28    37    39    1
    29    39    40    1
    30    26    27   ar
    31    27    28   ar
    32    28    29   ar
    33    29    30   ar
    34    30    31   ar
    35    31    32    1
    36    31    33   ar
    37     7     2   ar
    38    33    24   ar
    39    17    12   ar
    40    33    27   ar
    41     8    11    1
    42    40    41    1
    43    32    34    1
    44    32    35    1
@<TRIPOS>MOLECULE
*****
 41 44 0 0 0
SMALL
GASTEIGER

@<TRIPOS>ATOM
      1 C         138.0963  141.0404  159.1565 C.3     1  UNL1        0.0317
      2 C         138.5966  141.0959  160.5696 C.ar    1  UNL1       -0.0141
      3 C         137.7756  141.7677  161.6300 C.ar    1  UNL1       -0.0024
      4 C         138.2757  141.8232  163.0430 C.ar    1  UNL1        0.0144
      5 C         139.5971  141.2069  163.3957 C.ar    1  UNL1        0.0511
      6 C         140.4181  140.5351  162.3352 C.ar    1  UNL1        0.0226
      7 C         139.9179  140.4796  160.9222 C.ar    1  UNL1        0.0393
      8 N         140.0973  141.2624  164.8087 N.am    1  UNL1       -0.2804
      9 C         140.8999  142.4409  165.2744 C.2     1  UNL1        0.2495
     10 O         141.2023  143.5640  164.3271 O.2     1  UNL1       -0.2698
     11 H         139.8989  140.5253  165.4305 H       1  UNL1        0.1552
     12 C         141.4002  142.4964  166.6875 C.ar    1  UNL1        0.0536
     13 C         142.8480  142.2365  166.9813 C.ar    1  UNL1        0.0045
     14 C         143.3482  142.2920  168.3943 C.ar    1  UNL1        0.0001
     15 C         142.4007  142.6074  169.5136 C.ar    1  UNL1        0.0039
     16 C         140.9529  142.8672  169.2198 C.ar    1  UNL1        0.0716
     17 C         140.4526  142.8117  167.8067 C.ar    1  UNL1        0.0084
     18 C         140.0053  143.1826  170.3390 C.3     1  UNL1        0.4186
     19 F         139.0576  143.4978  171.4581 F       1  UNL1       -0.1659
     20 F         139.7626  141.7169  170.5465 F       1  UNL1       -0.1659
     21 F         140.2478  144.6482  170.1315 F       1  UNL1       -0.1659
     22 C         140.7389  139.8078  159.8617 C.1     1  UNL1       -0.0585
     23 C         141.5600  139.1361  158.8012 C.1     1  UNL1       -0.0386
     24 C         142.3811  138.4643  157.7408 C.ar    1  UNL1        0.1481
     25 N         142.2758  137.0277  157.3223 N.ar    1  UNL1       -0.1595
     26 N         143.2812  136.7868  156.2355 N.ar    1  UNL1       -0.2333
     27 C         144.0078  138.0744  155.9823 C.ar    1  UNL1        0.1659
     28 N         145.1041  138.4368  155.0248 N.ar    1  UNL1       -0.2050
     29 C         145.6440  139.8359  154.9977 C.ar    1  UNL1        0.2014
     30 N         145.0877  140.8727  155.9280 N.ar    1  UNL1       -0.2093
     31 C         143.9914  140.5103  156.8855 C.ar    1  UNL1        0.1322
     32 N         143.4351  141.5471  157.8159 N.pl3   1  UNL1       -0.3424
     33 C         143.4515  139.1112  156.9126 C.ar    1  UNL1        0.0938
     34 H         143.7895  142.4655  157.7980 H       1  UNL1        0.1437
     35 H         142.7155  141.3093  158.4443 H       1  UNL1        0.1437
     36 C         143.5184  135.4864  155.5263 C.3     1  UNL1        0.1316
     37 C         143.1925  134.1903  156.2075 C.3     1  UNL1        0.0538
     38 C         142.0000  133.3923  155.7702 C.3     1  UNL1        0.0046
     39 C         144.0591  133.6922  157.3259 C.3     1  UNL1        0.1391
     40 O         143.6636  133.9445  158.7506 O.3     1  UNL1       -0.3819
     41 H         143.6967  134.8969  158.9316 H       1  UNL1        0.2104
@<TRIPOS>BOND
     1     1     2    1
     2     2     3   ar
     3     3     4   ar
     4     4     5   ar
     5     5     8    1
     6     8     9   am
     7     9    10    2
     8     9    12    1
     9    12    13   ar
    10    13    14   ar
    11    14    15   ar
    12    15    16   ar
    13    16    18    1
    14    18    19    1
    15    18    20    1
    16    18    21    1
    17    16    17   ar
    18     5     6   ar
    19     6     7   ar
    20     7    22    1
    21    22    23    3
    22    23    24    1
    23    24    25   ar
    24    25    26   ar
    25    26    36    1
    26    36    37    1
    27    37    38    1
    28    37    39    1
    29    39    40    1
    30    26    27   ar
    31    27    28   ar
    32    28    29   ar
    33    29    30   ar
    34    30    31   ar
    35    31    32    1
    36    31    33   ar
    37     7     2   ar
    38    33    24   ar
    39    17    12   ar
    40    33    27   ar
    41     8    11    1
    42    40    41    1
    43    32    34    1
    44    32    35    1
@<TRIPOS>MOLECULE
*****
 41 44 0 0 0
SMALL
GASTEIGER

@<TRIPOS>ATOM
      1 C         143.5889  140.2597  158.7965 C.3     1  UNL1        0.0317
      2 C         143.2258  140.3365  160.2499 C.ar    1  UNL1       -0.0141
      3 C         144.1249  139.7214  161.2811 C.ar    1  UNL1       -0.0024
      4 C         143.7619  139.7981  162.7344 C.ar    1  UNL1        0.0144
      5 C         142.4997  140.4899  163.1567 C.ar    1  UNL1        0.0511
      6 C         141.6006  141.1050  162.1255 C.ar    1  UNL1        0.0226
      7 C         141.9637  141.0283  160.6721 C.ar    1  UNL1        0.0393
      8 N         142.1366  140.5667  164.6100 N.am    1  UNL1       -0.2804
      9 C         142.7282  141.6397  165.4752 C.2     1  UNL1        0.2495
     10 O         143.6829  142.6360  164.8870 O.2     1  UNL1       -0.2698
     11 H         141.5100  139.9128  164.9961 H       1  UNL1        0.1552
     12 C         142.3651  141.7165  166.9286 C.ar    1  UNL1        0.0536
     13 C         143.3010  142.3695  167.9020 C.ar    1  UNL1        0.0045
     14 C         142.9379  142.4463  169.3554 C.ar    1  UNL1        0.0001
     15 C         141.6388  141.8700  169.8353 C.ar    1  UNL1        0.0039
     16 C         140.7029  141.2170  168.8619 C.ar    1  UNL1        0.0716
     17 C         141.0660  141.1402  167.4085 C.ar    1  UNL1        0.0084
     18 C         139.4038  140.6407  169.3418 C.3     1  UNL1        0.4186
     19 F         138.1047  140.0643  169.8215 F       1  UNL1       -0.1659
     20 F         139.5192  139.5387  168.3306 F       1  UNL1       -0.1659
     21 F         139.2884  141.7426  170.3529 F       1  UNL1       -0.1659
     22 C         141.0646  141.6433  159.6409 C.1     1  UNL1       -0.0585
     23 C         140.1654  142.2584  158.6098 C.1     1  UNL1       -0.0386
     24 C         139.2664  142.8735  157.5786 C.ar    1  UNL1        0.1481
     25 N         139.4556  144.2126  156.9298 N.ar    1  UNL1       -0.1595
     26 N         138.3264  144.4241  155.9654 N.ar    1  UNL1       -0.2333
     27 C         137.4392  143.2157  156.0182 C.ar    1  UNL1        0.1659
     28 N         136.1775  142.8642  155.2871 N.ar    1  UNL1       -0.2050
     29 C         135.4967  141.5544  155.5531 C.ar    1  UNL1        0.2014
     30 N         136.0777  140.5960  156.5501 N.ar    1  UNL1       -0.2093
     31 C         137.3394  140.9475  157.2812 C.ar    1  UNL1        0.1322
     32 N         137.9204  139.9891  158.2782 N.pl3   1  UNL1       -0.3424
     33 C         138.0202  142.2573  157.0152 C.ar    1  UNL1        0.0938
     34 H         137.4735  139.1294  158.4527 H       1  UNL1        0.1437
     35 H         138.7485  140.2198  158.7580 H       1  UNL1        0.1437
     36 C         138.1204  145.6320  155.1002 C.3     1  UNL1        0.1316
     37 C         139.2003  146.6671  154.9878 C.3     1  UNL1        0.0538
     38 C         140.4857  146.3371  154.2886 C.3     1  UNL1        0.0046
     39 C         138.9947  148.0321  155.5747 C.3     1  UNL1        0.1391
     40 O         138.9088  148.2038  157.0623 O.3     1  UNL1       -0.3819
     41 H         138.1105  147.7631  157.3930 H       1  UNL1        0.2104
@<TRIPOS>BOND
     1     1     2    1
     2     2     3   ar
     3     3     4   ar
     4     4     5   ar
     5     5     8    1
     6     8     9   am
     7     9    10    2
     8     9    12    1
     9    12    13   ar
    10    13    14   ar
    11    14    15   ar
    12    15    16   ar
    13    16    18    1
    14    18    19    1
    15    18    20    1
    16    18    21    1
    17    16    17   ar
    18     5     6   ar
    19     6     7   ar
    20     7    22    1
    21    22    23    3
    22    23    24    1
    23    24    25   ar
    24    25    26   ar
    25    26    36    1
    26    36    37    1
    27    37    38    1
    28    37    39    1
    29    39    40    1
    30    26    27   ar
    31    27    28   ar
    32    28    29   ar
    33    29    30   ar
    34    30    31   ar
    35    31    32    1
    36    31    33   ar
    37     7     2   ar
    38    33    24   ar
    39    17    12   ar
    40    33    27   ar
    41     8    11    1
    42    40    41    1
    43    32    34    1
    44    32    35    1
@<TRIPOS>MOLECULE
*****
 41 44 0 0 0
SMALL
GASTEIGER

@<TRIPOS>ATOM
      1 C         137.6035  140.9079  157.6928 C.3     1  UNL1        0.0317
      2 C         137.8797  142.1891  156.9632 C.ar    1  UNL1       -0.0141
      3 C         136.9759  142.6276  155.8492 C.ar    1  UNL1       -0.0024
      4 C         137.2521  143.9087  155.1196 C.ar    1  UNL1        0.0144
      5 C         138.4321  144.7514  155.5038 C.ar    1  UNL1        0.0511
      6 C         139.3358  144.3128  156.6177 C.ar    1  UNL1        0.0226
      7 C         139.0597  143.0317  157.3474 C.ar    1  UNL1        0.0393
      8 N         138.7082  146.0325  154.7741 N.am    1  UNL1       -0.2804
      9 C         139.1052  147.2605  155.5386 C.2     1  UNL1        0.2495
     10 O         139.2259  147.2073  157.0328 O.2     1  UNL1       -0.2698
     11 H         138.6290  146.0674  153.7934 H       1  UNL1        0.1552
     12 C         139.3813  148.5416  154.8090 C.ar    1  UNL1        0.0536
     13 C         140.2090  148.5289  153.5581 C.ar    1  UNL1        0.0045
     14 C         140.4852  149.8100  152.8284 C.ar    1  UNL1        0.0001
     15 C         139.9337  151.1039  153.3497 C.ar    1  UNL1        0.0039
     16 C         139.1060  151.1167  154.6005 C.ar    1  UNL1        0.0716
     17 C         138.8298  149.8355  155.3302 C.ar    1  UNL1        0.0084
     18 C         138.5545  152.4105  155.1219 C.3     1  UNL1        0.4186
     19 F         138.0029  153.7043  155.6433 F       1  UNL1       -0.1659
     20 F         138.9337  152.0101  156.5168 F       1  UNL1       -0.1659
     21 F         138.1752  152.8110  153.7269 F       1  UNL1       -0.1659
     22 C         139.9634  142.5932  158.4613 C.1     1  UNL1       -0.0585
     23 C         140.8672  142.1547  159.5753 C.1     1  UNL1       -0.0386
     24 C         141.7710  141.7162  160.6893 C.ar    1  UNL1        0.1481
     25 N         142.0217  140.3001  161.1157 N.ar    1  UNL1       -0.1595
     26 N         142.9884  140.3255  162.2623 N.ar    1  UNL1       -0.2333
     27 C         143.3352  141.7573  162.5446 C.ar    1  UNL1        0.1659
     28 N         144.2389  142.3895  163.5613 N.ar    1  UNL1       -0.2050
     29 C         144.3901  143.8812  163.6058 C.ar    1  UNL1        0.2014
     30 N         143.6377  144.7406  162.6336 N.ar    1  UNL1       -0.2093
     31 C         142.7341  144.1085  161.6169 C.ar    1  UNL1        0.1322
     32 N         141.9817  144.9680  160.6447 N.pl3   1  UNL1       -0.3424
     33 C         142.5828  142.6168  161.5724 C.ar    1  UNL1        0.0938
     34 H         142.0810  145.9470  160.6739 H       1  UNL1        0.1437
     35 H         141.3886  144.5531  159.9774 H       1  UNL1        0.1437
     36 C         143.5158  139.1292  162.9976 C.3     1  UNL1        0.1316
     37 C         142.6273  138.3802  163.9462 C.3     1  UNL1        0.0538
     38 C         142.8970  138.4259  165.4210 C.3     1  UNL1        0.0046
     39 C         141.4691  137.5854  163.4199 C.3     1  UNL1        0.1391
     40 O         141.4824  137.0874  162.0051 O.3     1  UNL1       -0.3819
     41 H         141.4513  137.8420  161.3964 H       1  UNL1        0.2104
@<TRIPOS>BOND
     1     1     2    1
     2     2     3   ar
     3     3     4   ar
     4     4     5   ar
     5     5     8    1
     6     8     9   am
     7     9    10    2
     8     9    12    1
     9    12    13   ar
    10    13    14   ar
    11    14    15   ar
    12    15    16   ar
    13    16    18    1
    14    18    19    1
    15    18    20    1
    16    18    21    1
    17    16    17   ar
    18     5     6   ar
    19     6     7   ar
    20     7    22    1
    21    22    23    3
    22    23    24    1
    23    24    25   ar
    24    25    26   ar
    25    26    36    1
    26    36    37    1
    27    37    38    1
    28    37    39    1
    29    39    40    1
    30    26    27   ar
    31    27    28   ar
    32    28    29   ar
    33    29    30   ar
    34    30    31   ar
    35    31    32    1
    36    31    33   ar
    37     7     2   ar
    38    33    24   ar
    39    17    12   ar
    40    33    27   ar
    41     8    11    1
    42    40    41    1
    43    32    34    1
    44    32    35    1
