@<TRIPOS>MOLECULE
*****
 30 32 0 0 0
SMALL
GASTEIGER

@<TRIPOS>ATOM
      1 C         140.3268  141.5579  168.1344 C.2     1  UNL1        0.0708
      2 C         139.5192  140.5900  168.9474 C.2     1  UNL1        0.0283
      3 C         139.4165  140.7619  170.4340 C.3     1  UNL1        0.0470
      4 N         138.8142  139.4501  168.2738 N.pl3   1  UNL1       -0.3192
      5 C         138.9168  139.2781  166.7873 C.2     1  UNL1        0.0283
      6 C         138.2119  138.1382  166.1137 C.3     1  UNL1        0.0470
      7 C         139.7244  140.2460  165.9743 C.2     1  UNL1        0.0707
      8 C         140.4294  141.3859  166.6479 C.3     1  UNL1        0.0827
      9 H         138.2842  138.8148  168.8074 H       1  UNL1        0.1516
     10 C         141.2369  142.3538  165.8348 C.ar    1  UNL1        0.0051
     11 C         142.7261  142.1981  165.7447 C.ar    1  UNL1       -0.0020
     12 C         143.5336  143.1660  164.9316 C.ar    1  UNL1        0.0013
     13 C         142.8519  144.2897  164.2087 C.ar    1  UNL1        0.0205
     14 C         141.3628  144.4455  164.2989 C.ar    1  UNL1        0.0975
     15 C         140.5553  143.4776  165.1119 C.ar    1  UNL1        0.0944
     16 N         139.1138  143.8811  165.0157 N.3     1  UNL1       -0.2389
     17 O         139.0303  145.0983  164.1432 O.3     1  UNL1       -0.1558
     18 N         140.4204  145.4472  163.7002 N.3     1  UNL1       -0.2386
     19 H         138.3556  143.4267  165.4491 H       1  UNL1        0.1966
     20 H         140.6702  146.2012  163.1186 H       1  UNL1        0.1966
     21 C         141.0317  142.6978  168.8080 C.2     1  UNL1        0.3388
     22 O         140.7789  143.5003  169.0849 O.2     1  UNL1       -0.2452
     23 C         143.0672  141.2587  169.5399 C.3     1  UNL1        0.2559
     24 O         142.4893  142.5850  169.1436 O.3     1  UNL1       -0.4415
     25 C         139.8271  140.0741  164.4877 C.2     1  UNL1        0.3386
     26 O         138.6966  140.5083  163.6026 O.2     1  UNL1       -0.2452
     27 O         141.0603  139.4680  163.8863 O.3     1  UNL1       -0.4494
     28 C         141.7185  138.2938  164.5483 C.3     1  UNL1        0.1694
     29 C         141.1715  136.9125  164.3419 C.3     1  UNL1        0.0473
     30 C         142.9238  138.5012  165.4168 C.3     1  UNL1        0.0473
@<TRIPOS>BOND
     1    23    24    1
     2    24    21    1
     3    21    22    2
     4    21     1    1
     5     1     2    2
     6     2     3    1
     7     2     4    1
     8     4     5    1
     9     5     6    1
    10     5     7    2
    11     7    25    1
    12    25    26    2
    13    25    27    1
    14    27    28    1
    15    28    29    1
    16    28    30    1
    17     7     8    1
    18     8    10    1
    19    10    11   ar
    20    11    12   ar
    21    12    13   ar
    22    13    14   ar
    23    14    15   ar
    24    15    16    1
    25    16    17    1
    26    17    18    1
    27     8     1    1
    28    15    10   ar
    29    18    14    1
    30     4     9    1
    31    16    19    1
    32    18    20    1
@<TRIPOS>MOLECULE
*****
 30 32 0 0 0
SMALL
GASTEIGER

@<TRIPOS>ATOM
      1 C         140.4542  141.4714  167.8337 C.2     1  UNL1        0.0708
      2 C         139.5313  140.4755  168.4712 C.2     1  UNL1        0.0283
      3 C         139.1380  140.6315  169.9103 C.3     1  UNL1        0.0470
      4 N         139.0016  139.3236  167.6696 N.pl3   1  UNL1       -0.3192
      5 C         139.3947  139.1676  166.2305 C.2     1  UNL1        0.0283
      6 C         138.8651  138.0157  165.4289 C.3     1  UNL1        0.0470
      7 C         140.3177  140.1635  165.5930 C.2     1  UNL1        0.0707
      8 C         140.8474  141.3154  166.3947 C.3     1  UNL1        0.0827
      9 H         138.3958  138.6700  168.0880 H       1  UNL1        0.1516
     10 C         141.7703  142.3113  165.7571 C.ar    1  UNL1        0.0051
     11 C         143.2540  142.1787  165.9331 C.ar    1  UNL1       -0.0020
     12 C         144.1769  143.1746  165.2955 C.ar    1  UNL1        0.0013
     13 C         143.6160  144.3031  164.4819 C.ar    1  UNL1        0.0205
     14 C         142.1323  144.4356  164.3059 C.ar    1  UNL1        0.0975
     15 C         141.2095  143.4398  164.9434 C.ar    1  UNL1        0.0944
     16 N         139.8017  143.8245  164.5970 N.3     1  UNL1       -0.2389
     17 O         139.8544  145.0581  163.7454 O.3     1  UNL1       -0.1558
     18 N         141.2949  145.4358  163.5654 N.3     1  UNL1       -0.2386
     19 H         138.9862  143.3505  164.8792 H       1  UNL1        0.1966
     20 H         141.6316  146.2052  163.0516 H       1  UNL1        0.1966
     21 C         140.9839  142.6233  168.6354 C.2     1  UNL1        0.3388
     22 O         140.6545  143.4103  168.8736 O.2     1  UNL1       -0.2452
     23 C         142.9619  141.2316  169.5843 C.3     1  UNL1        0.2559
     24 O         142.3633  142.5581  169.2209 O.3     1  UNL1       -0.4415
     25 C         140.7109  140.0075  164.1539 C.2     1  UNL1        0.3386
     26 O         140.1117  140.9041  163.1112 O.2     1  UNL1       -0.2452
     27 O         141.7034  138.9550  163.7575 O.3     1  UNL1       -0.4494
     28 C         143.0569  138.9191  164.4033 C.3     1  UNL1        0.1694
     29 C         144.2476  139.4762  163.6810 C.3     1  UNL1        0.0473
     30 C         143.2195  138.3259  165.7714 C.3     1  UNL1        0.0473
@<TRIPOS>BOND
     1    23    24    1
     2    24    21    1
     3    21    22    2
     4    21     1    1
     5     1     2    2
     6     2     3    1
     7     2     4    1
     8     4     5    1
     9     5     6    1
    10     5     7    2
    11     7    25    1
    12    25    26    2
    13    25    27    1
    14    27    28    1
    15    28    29    1
    16    28    30    1
    17     7     8    1
    18     8    10    1
    19    10    11   ar
    20    11    12   ar
    21    12    13   ar
    22    13    14   ar
    23    14    15   ar
    24    15    16    1
    25    16    17    1
    26    17    18    1
    27     8     1    1
    28    15    10   ar
    29    18    14    1
    30     4     9    1
    31    16    19    1
    32    18    20    1
@<TRIPOS>MOLECULE
*****
 30 32 0 0 0
SMALL
GASTEIGER

@<TRIPOS>ATOM
      1 C         140.2175  141.6262  168.2328 C.2     1  UNL1        0.0708
      2 C         139.6525  140.5743  169.1407 C.2     1  UNL1        0.0283
      3 C         139.8646  140.6699  170.6225 C.3     1  UNL1        0.0470
      4 N         138.8753  139.4269  168.5668 N.pl3   1  UNL1       -0.3192
      5 C         138.6630  139.3313  167.0850 C.2     1  UNL1        0.0283
      6 C         137.8858  138.1839  166.5110 C.3     1  UNL1        0.0470
      7 C         139.2281  140.3832  166.1771 C.2     1  UNL1        0.0707
      8 C         140.0052  141.5306  166.7510 C.3     1  UNL1        0.0827
      9 H         138.5044  138.7365  169.1627 H       1  UNL1        0.1516
     10 C         140.5702  142.5825  165.8430 C.ar    1  UNL1        0.0051
     11 C         139.6943  143.6947  165.3473 C.ar    1  UNL1       -0.0020
     12 C         140.2594  144.7466  164.4393 C.ar    1  UNL1        0.0013
     13 C         141.7003  144.6861  164.0270 C.ar    1  UNL1        0.0205
     14 C         142.5762  143.5739  164.5227 C.ar    1  UNL1        0.0975
     15 C         142.0112  142.5222  165.4307 C.ar    1  UNL1        0.0944
     16 N         143.1088  141.5532  165.7570 N.3     1  UNL1       -0.2389
     17 O         144.3522  142.0062  165.0508 O.3     1  UNL1       -0.1558
     18 N         144.0230  143.2551  164.2879 N.3     1  UNL1       -0.2386
     19 H         143.0274  140.7594  166.3336 H       1  UNL1        0.1966
     20 H         144.6470  143.7743  163.7309 H       1  UNL1        0.1966
     21 C         140.9947  142.7737  168.8067 C.2     1  UNL1        0.3388
     22 O         140.7686  143.5395  169.1900 O.2     1  UNL1       -0.2452
     23 C         143.2308  141.6531  169.5093 C.3     1  UNL1        0.2559
     24 O         142.4943  142.7455  168.7923 O.3     1  UNL1       -0.4415
     25 C         139.0159  140.2877  164.6952 C.2     1  UNL1        0.3386
     26 O         137.7648  140.8406  164.0794 O.2     1  UNL1       -0.2452
     27 O         140.0548  139.6393  163.8291 O.3     1  UNL1       -0.4494
     28 C         139.9541  138.1786  163.5027 C.3     1  UNL1        0.1694
     29 C         138.7709  137.6603  162.7402 C.3     1  UNL1        0.0473
     30 C         141.0366  137.2364  163.9390 C.3     1  UNL1        0.0473
@<TRIPOS>BOND
     1    23    24    1
     2    24    21    1
     3    21    22    2
     4    21     1    1
     5     1     2    2
     6     2     3    1
     7     2     4    1
     8     4     5    1
     9     5     6    1
    10     5     7    2
    11     7    25    1
    12    25    26    2
    13    25    27    1
    14    27    28    1
    15    28    29    1
    16    28    30    1
    17     7     8    1
    18     8    10    1
    19    10    11   ar
    20    11    12   ar
    21    12    13   ar
    22    13    14   ar
    23    14    15   ar
    24    15    16    1
    25    16    17    1
    26    17    18    1
    27     8     1    1
    28    15    10   ar
    29    18    14    1
    30     4     9    1
    31    16    19    1
    32    18    20    1
@<TRIPOS>MOLECULE
*****
 30 32 0 0 0
SMALL
GASTEIGER

@<TRIPOS>ATOM
      1 C         141.1430  140.4593  167.7995 C.2     1  UNL1        0.0708
      2 C         142.1811  139.5410  168.3731 C.2     1  UNL1        0.0283
      3 C         142.1297  139.1641  169.8241 C.3     1  UNL1        0.0470
      4 N         143.2706  138.9995  167.4958 N.pl3   1  UNL1       -0.3192
      5 C         143.3221  139.3763  166.0448 C.2     1  UNL1        0.0283
      6 C         144.4117  138.8348  165.1675 C.3     1  UNL1        0.0470
      7 C         142.2841  140.2946  165.4712 C.2     1  UNL1        0.0707
      8 C         141.1946  140.8361  166.3485 C.3     1  UNL1        0.0827
      9 H         143.9519  138.3967  167.8723 H       1  UNL1        0.1516
     10 C         140.1565  141.7545  165.7748 C.ar    1  UNL1        0.0051
     11 C         140.2062  143.2233  166.0749 C.ar    1  UNL1       -0.0020
     12 C         139.1681  144.1416  165.5012 C.ar    1  UNL1        0.0013
     13 C         138.0804  143.5910  164.6273 C.ar    1  UNL1        0.0205
     14 C         138.0307  142.1222  164.3272 C.ar    1  UNL1        0.0975
     15 C         139.0687  141.2040  164.9009 C.ar    1  UNL1        0.0944
     16 N         138.7649  139.8114  164.4335 N.3     1  UNL1       -0.2389
     17 O         137.5391  139.8689  163.5709 O.3     1  UNL1       -0.1558
     18 N         137.0853  141.2972  163.5052 N.3     1  UNL1       -0.2386
     19 H         139.2797  139.0017  164.6542 H       1  UNL1        0.1966
     20 H         136.3042  141.6340  163.0096 H       1  UNL1        0.1966
     21 C         140.0535  141.0008  168.6768 C.2     1  UNL1        0.3388
     22 O         139.2599  140.6993  168.9295 O.2     1  UNL1       -0.2452
     23 C         141.5871  142.9052  169.5550 C.3     1  UNL1        0.2559
     24 O         140.2156  142.3393  169.3342 O.3     1  UNL1       -0.4415
     25 C         142.3355  140.6715  164.0202 C.2     1  UNL1        0.3386
     26 O         141.7398  139.7614  162.9873 O.2     1  UNL1       -0.2452
     27 O         142.9826  141.9585  163.6021 O.3     1  UNL1       -0.4494
     28 C         144.2790  142.3835  164.2259 C.3     1  UNL1        0.1694
     29 C         144.2765  143.3279  165.3913 C.3     1  UNL1        0.0473
     30 C         145.5777  141.8641  163.6841 C.3     1  UNL1        0.0473
@<TRIPOS>BOND
     1    23    24    1
     2    24    21    1
     3    21    22    2
     4    21     1    1
     5     1     2    2
     6     2     3    1
     7     2     4    1
     8     4     5    1
     9     5     6    1
    10     5     7    2
    11     7    25    1
    12    25    26    2
    13    25    27    1
    14    27    28    1
    15    28    29    1
    16    28    30    1
    17     7     8    1
    18     8    10    1
    19    10    11   ar
    20    11    12   ar
    21    12    13   ar
    22    13    14   ar
    23    14    15   ar
    24    15    16    1
    25    16    17    1
    26    17    18    1
    27     8     1    1
    28    15    10   ar
    29    18    14    1
    30     4     9    1
    31    16    19    1
    32    18    20    1
@<TRIPOS>MOLECULE
*****
 30 32 0 0 0
SMALL
GASTEIGER

@<TRIPOS>ATOM
      1 C         142.3642  138.7290  162.8606 C.2     1  UNL1        0.0708
      2 C         143.7016  138.7102  162.1816 C.2     1  UNL1        0.0283
      3 C         144.0285  137.6253  161.1987 C.3     1  UNL1        0.0470
      4 N         144.7120  139.7764  162.4854 N.pl3   1  UNL1       -0.3192
      5 C         144.3851  140.8613  163.4682 C.2     1  UNL1        0.0283
      6 C         145.3956  141.9275  163.7720 C.3     1  UNL1        0.0470
      7 C         143.0478  140.8801  164.1473 C.2     1  UNL1        0.0707
      8 C         142.0373  139.8139  163.8435 C.3     1  UNL1        0.0827
      9 H         145.5897  139.7640  162.0397 H       1  UNL1        0.1516
     10 C         140.7000  139.8328  164.5226 C.ar    1  UNL1        0.0051
     11 C         140.4476  138.9476  165.7070 C.ar    1  UNL1       -0.0020
     12 C         139.1102  138.9665  166.3860 C.ar    1  UNL1        0.0013
     13 C         138.0252  139.8706  165.8806 C.ar    1  UNL1        0.0205
     14 C         138.2776  140.7557  164.6962 C.ar    1  UNL1        0.0975
     15 C         139.6148  140.7368  164.0172 C.ar    1  UNL1        0.0944
     16 N         139.5709  141.7134  162.8796 N.3     1  UNL1       -0.2389
     17 O         138.2064  142.3359  162.8554 O.3     1  UNL1       -0.1558
     18 N         137.4070  141.7440  163.9783 N.3     1  UNL1       -0.2386
     19 H         140.3082  141.9111  162.2578 H       1  UNL1        0.1966
     20 H         136.4747  141.9653  164.2043 H       1  UNL1        0.1966
     21 C         141.3537  137.6628  162.5568 C.2     1  UNL1        0.3388
     22 O         141.1308  136.8981  162.9440 O.2     1  UNL1       -0.2452
     23 C         138.9995  138.0947  161.5464 C.3     1  UNL1        0.2559
     24 O         140.4580  137.7973  161.3612 O.3     1  UNL1       -0.4415
     25 C         142.7208  141.9650  165.1301 C.2     1  UNL1        0.3386
     26 O         141.9393  143.1667  164.6884 O.2     1  UNL1       -0.2452
     27 O         143.1754  141.8482  166.5548 O.3     1  UNL1       -0.4494
     28 C         142.2236  141.3646  167.6086 C.3     1  UNL1        0.1694
     29 C         140.8986  142.0434  167.7911 C.3     1  UNL1        0.0473
     30 C         142.5971  140.2021  168.4799 C.3     1  UNL1        0.0473
@<TRIPOS>BOND
     1    23    24    1
     2    24    21    1
     3    21    22    2
     4    21     1    1
     5     1     2    2
     6     2     3    1
     7     2     4    1
     8     4     5    1
     9     5     6    1
    10     5     7    2
    11     7    25    1
    12    25    26    2
    13    25    27    1
    14    27    28    1
    15    28    29    1
    16    28    30    1
    17     7     8    1
    18     8    10    1
    19    10    11   ar
    20    11    12   ar
    21    12    13   ar
    22    13    14   ar
    23    14    15   ar
    24    15    16    1
    25    16    17    1
    26    17    18    1
    27     8     1    1
    28    15    10   ar
    29    18    14    1
    30     4     9    1
    31    16    19    1
    32    18    20    1
@<TRIPOS>MOLECULE
*****
 30 32 0 0 0
SMALL
GASTEIGER

@<TRIPOS>ATOM
      1 C         140.4670  141.3658  167.6831 C.2     1  UNL1        0.0708
      2 C         139.5805  140.3319  168.3117 C.2     1  UNL1        0.0283
      3 C         139.2327  140.4273  169.7677 C.3     1  UNL1        0.0470
      4 N         139.0419  139.2025  167.4844 N.pl3   1  UNL1       -0.3192
      5 C         139.3897  139.1071  166.0284 C.2     1  UNL1        0.0283
      6 C         138.8511  137.9778  165.2011 C.3     1  UNL1        0.0470
      7 C         140.2762  140.1410  165.3998 C.2     1  UNL1        0.0707
      8 C         140.8148  141.2703  166.2271 C.3     1  UNL1        0.0827
      9 H         138.4601  138.5240  167.8970 H       1  UNL1        0.1516
     10 C         141.7013  142.3042  165.5984 C.ar    1  UNL1        0.0051
     11 C         143.1920  142.1846  165.7140 C.ar    1  UNL1       -0.0020
     12 C         144.0784  143.2185  165.0852 C.ar    1  UNL1        0.0013
     13 C         143.4741  144.3721  164.3409 C.ar    1  UNL1        0.0205
     14 C         141.9833  144.4918  164.2254 C.ar    1  UNL1        0.0975
     15 C         141.0970  143.4579  164.8541 C.ar    1  UNL1        0.0944
     16 N         139.6727  143.8376  164.5763 N.3     1  UNL1       -0.2389
     17 O         139.6787  145.1061  163.7758 O.3     1  UNL1       -0.1558
     18 N         141.1069  145.5104  163.5590 N.3     1  UNL1       -0.2386
     19 H         138.8740  143.3413  164.8680 H       1  UNL1        0.1966
     20 H         141.4149  146.3049  163.0658 H       1  UNL1        0.1966
     21 C         141.0056  142.4951  168.5105 C.2     1  UNL1        0.3388
     22 O         140.6674  143.2600  168.8023 O.2     1  UNL1       -0.2452
     23 C         142.9643  141.1669  169.5825 C.3     1  UNL1        0.2559
     24 O         142.4151  142.4449  169.0211 O.3     1  UNL1       -0.4415
     25 C         140.6241  140.0456  163.9438 C.2     1  UNL1        0.3386
     26 O         141.7276  139.1345  163.4944 O.2     1  UNL1       -0.2452
     27 O         139.8683  140.8614  162.9372 O.3     1  UNL1       -0.4494
     28 C         138.4268  140.5572  162.6551 C.3     1  UNL1        0.1694
     29 C         137.3504  141.4377  163.2174 C.3     1  UNL1        0.0473
     30 C         138.0617  139.3724  161.8108 C.3     1  UNL1        0.0473
@<TRIPOS>BOND
     1    23    24    1
     2    24    21    1
     3    21    22    2
     4    21     1    1
     5     1     2    2
     6     2     3    1
     7     2     4    1
     8     4     5    1
     9     5     6    1
    10     5     7    2
    11     7    25    1
    12    25    26    2
    13    25    27    1
    14    27    28    1
    15    28    29    1
    16    28    30    1
    17     7     8    1
    18     8    10    1
    19    10    11   ar
    20    11    12   ar
    21    12    13   ar
    22    13    14   ar
    23    14    15   ar
    24    15    16    1
    25    16    17    1
    26    17    18    1
    27     8     1    1
    28    15    10   ar
    29    18    14    1
    30     4     9    1
    31    16    19    1
    32    18    20    1
@<TRIPOS>MOLECULE
*****
 30 32 0 0 0
SMALL
GASTEIGER

@<TRIPOS>ATOM
      1 C         141.4202  143.0652  164.6245 C.2     1  UNL1        0.0708
      2 C         142.5694  143.8725  164.0977 C.2     1  UNL1        0.0283
      3 C         142.3824  145.3272  163.7834 C.3     1  UNL1        0.0470
      4 N         143.9058  143.2251  163.8853 N.pl3   1  UNL1       -0.3192
      5 C         144.0929  141.7704  164.1996 C.2     1  UNL1        0.0283
      6 C         145.4292  141.1230  163.9871 C.3     1  UNL1        0.0470
      7 C         142.9436  140.9631  164.7263 C.2     1  UNL1        0.0707
      8 C         141.6073  141.6105  164.9388 C.3     1  UNL1        0.0827
      9 H         144.6600  143.7550  163.5395 H       1  UNL1        0.1516
     10 C         140.4581  140.8031  165.4655 C.ar    1  UNL1        0.0051
     11 C         139.4467  140.2306  164.5173 C.ar    1  UNL1       -0.0020
     12 C         138.2975  139.4232  165.0442 C.ar    1  UNL1        0.0013
     13 C         138.1598  139.1884  166.5192 C.ar    1  UNL1        0.0205
     14 C         139.1712  139.7609  167.4675 C.ar    1  UNL1        0.0975
     15 C         140.3203  140.5682  166.9407 C.ar    1  UNL1        0.0944
     16 N         141.1551  141.0032  168.1085 N.3     1  UNL1       -0.2389
     17 O         140.5220  140.4647  169.3571 O.3     1  UNL1       -0.1558
     18 N         139.2958  139.6969  168.9609 N.3     1  UNL1       -0.2386
     19 H         141.9748  141.5467  168.0634 H       1  UNL1        0.1966
     20 H         138.6807  139.2324  169.5735 H       1  UNL1        0.1966
     21 C         140.0839  143.7126  164.8369 C.2     1  UNL1        0.3388
     22 O         139.6745  144.0627  165.5400 O.2     1  UNL1       -0.2452
     23 C         139.4645  143.2602  162.3546 C.3     1  UNL1        0.2559
     24 O         139.1326  143.8640  163.6871 O.3     1  UNL1       -0.4415
     25 C         143.1307  139.5084  165.0407 C.2     1  UNL1        0.3386
     26 O         143.3065  139.0649  166.4628 O.2     1  UNL1       -0.2452
     27 O         143.1419  138.4972  163.9329 O.3     1  UNL1       -0.4494
     28 C         141.8706  137.8089  163.5326 C.3     1  UNL1        0.1694
     29 C         141.1114  136.9927  164.5364 C.3     1  UNL1        0.0473
     30 C         141.3585  137.9368  162.1286 C.3     1  UNL1        0.0473
@<TRIPOS>BOND
     1    23    24    1
     2    24    21    1
     3    21    22    2
     4    21     1    1
     5     1     2    2
     6     2     3    1
     7     2     4    1
     8     4     5    1
     9     5     6    1
    10     5     7    2
    11     7    25    1
    12    25    26    2
    13    25    27    1
    14    27    28    1
    15    28    29    1
    16    28    30    1
    17     7     8    1
    18     8    10    1
    19    10    11   ar
    20    11    12   ar
    21    12    13   ar
    22    13    14   ar
    23    14    15   ar
    24    15    16    1
    25    16    17    1
    26    17    18    1
    27     8     1    1
    28    15    10   ar
    29    18    14    1
    30     4     9    1
    31    16    19    1
    32    18    20    1
@<TRIPOS>MOLECULE
*****
 30 32 0 0 0
SMALL
GASTEIGER

@<TRIPOS>ATOM
      1 C         140.0652  144.1710  163.8224 C.2     1  UNL1        0.0708
      2 C         140.5528  145.1012  162.7514 C.2     1  UNL1        0.0283
      3 C         139.5939  146.0371  162.0772 C.3     1  UNL1        0.0470
      4 N         141.9994  145.0954  162.3545 N.pl3   1  UNL1       -0.3192
      5 C         142.9583  144.1595  163.0287 C.2     1  UNL1        0.0283
      6 C         144.4049  144.1537  162.6318 C.3     1  UNL1        0.0470
      7 C         142.4707  143.2294  164.0997 C.2     1  UNL1        0.0707
      8 C         141.0242  143.2352  164.4965 C.3     1  UNL1        0.0827
      9 H         142.3194  145.7059  161.6516 H       1  UNL1        0.1516
     10 C         140.5366  142.3050  165.5676 C.ar    1  UNL1        0.0051
     11 C         140.7701  142.6360  167.0118 C.ar    1  UNL1       -0.0020
     12 C         140.2825  141.7057  168.0828 C.ar    1  UNL1        0.0013
     13 C         139.5614  140.4445  167.7095 C.ar    1  UNL1        0.0205
     14 C         139.3280  140.1135  166.2652 C.ar    1  UNL1        0.0975
     15 C         139.8155  141.0437  165.1943 C.ar    1  UNL1        0.0944
     16 N         139.4420  140.4568  163.8653 N.3     1  UNL1       -0.2389
     17 O         138.7237  139.1639  164.1149 O.3     1  UNL1       -0.1558
     18 N         138.6532  138.9517  165.5982 N.3     1  UNL1       -0.2386
     19 H         139.6346  140.8510  162.9840 H       1  UNL1        0.1966
     20 H         138.2370  138.1846  166.0539 H       1  UNL1        0.1966
     21 C         138.6187  144.1768  164.2192 C.2     1  UNL1        0.3388
     22 O         138.1400  144.6518  164.7935 O.2     1  UNL1       -0.2452
     23 C         137.7982  142.8791  162.1234 C.3     1  UNL1        0.2559
     24 O         137.6614  143.2160  163.5786 O.3     1  UNL1       -0.4415
     25 C         143.4296  142.2935  164.7739 C.2     1  UNL1        0.3386
     26 O         144.1029  142.7010  166.0508 O.2     1  UNL1       -0.2452
     27 O         143.7152  140.9499  164.1711 O.3     1  UNL1       -0.4494
     28 C         143.1056  139.7156  164.7668 C.3     1  UNL1        0.1694
     29 C         143.0459  139.5526  166.2568 C.3     1  UNL1        0.0473
     30 C         142.5558  138.6442  163.8725 C.3     1  UNL1        0.0473
@<TRIPOS>BOND
     1    23    24    1
     2    24    21    1
     3    21    22    2
     4    21     1    1
     5     1     2    2
     6     2     3    1
     7     2     4    1
     8     4     5    1
     9     5     6    1
    10     5     7    2
    11     7    25    1
    12    25    26    2
    13    25    27    1
    14    27    28    1
    15    28    29    1
    16    28    30    1
    17     7     8    1
    18     8    10    1
    19    10    11   ar
    20    11    12   ar
    21    12    13   ar
    22    13    14   ar
    23    14    15   ar
    24    15    16    1
    25    16    17    1
    26    17    18    1
    27     8     1    1
    28    15    10   ar
    29    18    14    1
    30     4     9    1
    31    16    19    1
    32    18    20    1
@<TRIPOS>MOLECULE
*****
 30 32 0 0 0
SMALL
GASTEIGER

@<TRIPOS>ATOM
      1 C         142.7740  141.3071  164.2647 C.2     1  UNL1        0.0708
      2 C         143.6005  140.0905  163.9702 C.2     1  UNL1        0.0283
      3 C         145.0847  140.1221  164.1848 C.3     1  UNL1        0.0470
      4 N         142.9428  138.8423  163.4609 N.pl3   1  UNL1       -0.3192
      5 C         141.4586  138.8106  163.2462 C.2     1  UNL1        0.0283
      6 C         140.8009  137.5624  162.7370 C.3     1  UNL1        0.0470
      7 C         140.6321  140.0272  163.5408 C.2     1  UNL1        0.0707
      8 C         141.2898  141.2754  164.0500 C.3     1  UNL1        0.0827
      9 H         143.4852  138.0438  163.2676 H       1  UNL1        0.1516
     10 C         140.4632  142.4920  164.3445 C.ar    1  UNL1        0.0051
     11 C         140.1833  142.8827  165.7654 C.ar    1  UNL1       -0.0020
     12 C         139.3567  144.0993  166.0599 C.ar    1  UNL1        0.0013
     13 C         138.8100  144.9252  164.9334 C.ar    1  UNL1        0.0205
     14 C         139.0899  144.5346  163.5125 C.ar    1  UNL1        0.0975
     15 C         139.9165  143.3181  163.2180 C.ar    1  UNL1        0.0944
     16 N         140.0254  143.1812  161.7283 N.3     1  UNL1       -0.2389
     17 O         139.2662  144.3130  161.1020 O.3     1  UNL1       -0.1558
     18 N         138.6880  145.1496  162.2047 N.3     1  UNL1       -0.2386
     19 H         140.5102  142.4727  161.2462 H       1  UNL1        0.1966
     20 H         138.1408  145.9599  162.0903 H       1  UNL1        0.1966
     21 C         143.4317  142.5554  164.7739 C.2     1  UNL1        0.3388
     22 O         143.6571  142.8475  165.5792 O.2     1  UNL1       -0.2452
     23 C         143.2055  144.9806  163.8701 C.3     1  UNL1        0.2559
     24 O         143.8510  143.6278  163.8127 O.3     1  UNL1       -0.4415
     25 C         139.1479  139.9956  163.3261 C.2     1  UNL1        0.3386
     26 O         138.5859  140.1637  161.9455 O.2     1  UNL1       -0.2452
     27 O         138.2255  139.7959  164.4920 O.3     1  UNL1       -0.4494
     28 C         138.6539  138.9440  165.6500 C.3     1  UNL1        0.1694
     29 C         139.1411  139.5871  166.9145 C.3     1  UNL1        0.0473
     30 C         138.5949  137.4490  165.5433 C.3     1  UNL1        0.0473
@<TRIPOS>BOND
     1    23    24    1
     2    24    21    1
     3    21    22    2
     4    21     1    1
     5     1     2    2
     6     2     3    1
     7     2     4    1
     8     4     5    1
     9     5     6    1
    10     5     7    2
    11     7    25    1
    12    25    26    2
    13    25    27    1
    14    27    28    1
    15    28    29    1
    16    28    30    1
    17     7     8    1
    18     8    10    1
    19    10    11   ar
    20    11    12   ar
    21    12    13   ar
    22    13    14   ar
    23    14    15   ar
    24    15    16    1
    25    16    17    1
    26    17    18    1
    27     8     1    1
    28    15    10   ar
    29    18    14    1
    30     4     9    1
    31    16    19    1
    32    18    20    1
