@<TRIPOS>MOLECULE
*****
 35 39 0 0 0
SMALL
GASTEIGER

@<TRIPOS>ATOM
      1 C         142.5127  137.0396  157.2172 C.ar    1  UNL1        0.1020
      2 C         141.1306  137.3449  156.7206 C.ar    1  UNL1        0.0205
      3 C         140.2332  138.2513  157.5100 C.ar    1  UNL1        0.0002
      4 C         140.7179  138.8524  158.7961 C.ar    1  UNL1        0.0130
      5 C         142.1000  138.5470  159.2927 C.ar    1  UNL1        0.0959
      6 N         142.9974  137.6406  158.5032 N.ar    1  UNL1       -0.2425
      7 N         144.5458  136.7078  155.6340 N.2     1  UNL1       -0.0815
      8 C         143.4101  136.1332  156.4279 C.2     1  UNL1        0.1369
      9 C         143.1719  134.6523  156.4323 C.ar    1  UNL1        0.0247
     10 C         142.0758  134.0664  155.5925 C.ar    1  UNL1        0.0041
     11 C         141.8376  132.5855  155.5969 C.ar    1  UNL1        0.0320
     12 C         142.6954  131.6904  156.4412 C.ar    1  UNL1        0.1674
     13 F         142.4572  130.2094  156.4456 F       1  UNL1       -0.2018
     14 C         143.7916  132.2762  157.2810 C.ar    1  UNL1        0.1674
     15 F         144.6495  131.3811  158.1253 F       1  UNL1       -0.2018
     16 C         144.0298  133.7572  157.2766 C.ar    1  UNL1        0.0336
     17 O         144.7840  138.1888  155.6296 O.2     1  UNL1       -0.3773
     18 C         143.0545  138.6058  153.7363 C.3     1  UNL1        0.0543
     19 C         144.2805  139.0260  154.4914 C.3     1  UNL1        0.2386
     20 C         139.8205  139.7587  159.5854 C.3     1  UNL1        0.1007
     21 N         139.5926  139.5025  161.0457 N.3     1  UNL1       -0.2687
     22 C         140.0375  140.5115  162.0626 C.3     1  UNL1        0.0751
     23 C         139.8096  140.2552  163.5228 C.3     1  UNL1        0.0489
     24 C         139.1367  138.9900  163.9662 C.3     1  UNL1        0.1157
     25 C         138.6918  137.9811  162.9493 C.3     1  UNL1        0.0489
     26 C         138.9198  138.2373  161.4891 C.3     1  UNL1        0.0751
     27 O         138.4807  137.7771  164.5567 O.3     1  UNL1       -0.3496
     28 C         138.4633  137.9392  166.0479 C.3     1  UNL1        0.1687
     29 C         139.1087  139.2522  166.3790 C.ar    1  UNL1        0.0108
     30 C         139.3711  139.9404  167.6857 C.ar    1  UNL1        0.0476
     31 C         140.0497  141.2778  167.7060 C.ar    1  UNL1        0.2221
     32 F         140.3121  141.9660  169.0127 F       1  UNL1       -0.1832
     33 N         140.4659  141.9273  166.4195 N.ar    1  UNL1       -0.2167
     34 C         140.2035  141.2392  165.1128 C.ar    1  UNL1        0.0990
     35 C         139.5248  139.9016  165.0925 C.ar    1  UNL1        0.0198
@<TRIPOS>BOND
     1    18    19    1
     2    19    17    1
     3    17     7    1
     4     7     8    2
     5     8     9    1
     6     9    10   ar
     7    10    11   ar
     8    11    12   ar
     9    12    13    1
    10    12    14   ar
    11    14    15    1
    12    14    16   ar
    13     8     1    1
    14     1     2   ar
    15     2     3   ar
    16     3     4   ar
    17     4    20    1
    18    20    21    1
    19    21    22    1
    20    22    23    1
    21    23    24    1
    22    24    25    1
    23    25    26    1
    24    24    27    1
    25    27    28    1
    26    28    29    1
    27    29    30   ar
    28    30    31   ar
    29    31    32    1
    30    31    33   ar
    31    33    34   ar
    32    34    35   ar
    33     4     5   ar
    34     5     6   ar
    35    16     9   ar
    36     6     1   ar
    37    26    21    1
    38    35    29   ar
    39    35    24    1
@<TRIPOS>MOLECULE
*****
 35 39 0 0 0
SMALL
GASTEIGER

@<TRIPOS>ATOM
      1 C         141.3019  138.6637  160.3273 C.ar    1  UNL1        0.1020
      2 C         140.4390  139.8899  160.3706 C.ar    1  UNL1        0.0205
      3 C         139.4640  140.0815  161.4943 C.ar    1  UNL1        0.0002
      4 C         139.3519  139.0469  162.5747 C.ar    1  UNL1        0.0130
      5 C         140.2148  137.8208  162.5314 C.ar    1  UNL1        0.0959
      6 N         141.1899  137.6292  161.4076 N.ar    1  UNL1       -0.2425
      7 N         143.6487  139.0729  159.2903 N.2     1  UNL1       -0.0815
      8 C         142.2769  138.4721  159.2037 C.2     1  UNL1        0.1369
      9 C         141.8802  137.6797  157.9934 C.ar    1  UNL1        0.0247
     10 C         140.5593  137.9346  157.3299 C.ar    1  UNL1        0.0041
     11 C         140.1626  137.1423  156.1196 C.ar    1  UNL1        0.0320
     12 C         141.0868  136.0950  155.5728 C.ar    1  UNL1        0.1674
     13 F         140.6902  135.3026  154.3625 F       1  UNL1       -0.2018
     14 C         142.4078  135.8401  156.2363 C.ar    1  UNL1        0.1674
     15 F         143.3320  134.7928  155.6895 F       1  UNL1       -0.2018
     16 C         142.8045  136.6324  157.4466 C.ar    1  UNL1        0.0336
     17 O         144.0454  139.8652  160.5006 O.2     1  UNL1       -0.3773
     18 C         143.1120  142.1501  161.3117 C.3     1  UNL1        0.0543
     19 C         144.0521  141.3642  160.4465 C.3     1  UNL1        0.2386
     20 C         138.3769  139.2386  163.6983 C.3     1  UNL1        0.1007
     21 N         138.8758  139.5265  165.0834 N.3     1  UNL1       -0.2687
     22 C         140.1550  140.2855  165.2771 C.3     1  UNL1        0.0751
     23 C         140.6539  140.5734  166.6620 C.3     1  UNL1        0.0489
     24 C         139.8735  140.1024  167.8533 C.3     1  UNL1        0.1157
     25 C         138.5943  139.3434  167.6596 C.3     1  UNL1        0.0489
     26 C         138.0955  139.0555  166.2747 C.3     1  UNL1        0.0751
     27 O         139.2047  139.6971  169.1334 O.3     1  UNL1       -0.3496
     28 C         140.0467  140.1904  170.2727 C.3     1  UNL1        0.1687
     29 C         141.2358  140.9006  169.6967 C.ar    1  UNL1        0.0108
     30 C         142.4022  141.5897  170.3405 C.ar    1  UNL1        0.0476
     31 C         143.4615  142.2245  169.4892 C.ar    1  UNL1        0.2221
     32 F         144.6279  142.9136  170.1331 F       1  UNL1       -0.1832
     33 N         143.3546  142.1701  167.9940 N.ar    1  UNL1       -0.2167
     34 C         142.1882  141.4809  167.3502 C.ar    1  UNL1        0.0990
     35 C         141.1288  140.8462  168.2015 C.ar    1  UNL1        0.0198
@<TRIPOS>BOND
     1    18    19    1
     2    19    17    1
     3    17     7    1
     4     7     8    2
     5     8     9    1
     6     9    10   ar
     7    10    11   ar
     8    11    12   ar
     9    12    13    1
    10    12    14   ar
    11    14    15    1
    12    14    16   ar
    13     8     1    1
    14     1     2   ar
    15     2     3   ar
    16     3     4   ar
    17     4    20    1
    18    20    21    1
    19    21    22    1
    20    22    23    1
    21    23    24    1
    22    24    25    1
    23    25    26    1
    24    24    27    1
    25    27    28    1
    26    28    29    1
    27    29    30   ar
    28    30    31   ar
    29    31    32    1
    30    31    33   ar
    31    33    34   ar
    32    34    35   ar
    33     4     5   ar
    34     5     6   ar
    35    16     9   ar
    36     6     1   ar
    37    26    21    1
    38    35    29   ar
    39    35    24    1
@<TRIPOS>MOLECULE
*****
 35 39 0 0 0
SMALL
GASTEIGER

@<TRIPOS>ATOM
      1 C         139.9527  142.8073  160.4405 C.ar    1  UNL1        0.1020
      2 C         138.8783  143.3456  161.3383 C.ar    1  UNL1        0.0205
      3 C         138.3123  142.4859  162.4294 C.ar    1  UNL1        0.0002
      4 C         138.8206  141.0879  162.6226 C.ar    1  UNL1        0.0130
      5 C         139.8949  140.5496  161.7248 C.ar    1  UNL1        0.0959
      6 N         140.4610  141.4094  160.6337 N.ar    1  UNL1       -0.2425
      7 N         141.8645  144.3071  159.5207 N.2     1  UNL1       -0.0815
      8 C         140.5187  143.6670  159.3494 C.2     1  UNL1        0.1369
      9 C         139.7390  143.8868  158.0869 C.ar    1  UNL1        0.0247
     10 C         138.7068  142.8860  157.6591 C.ar    1  UNL1        0.0041
     11 C         137.9271  143.1057  156.3966 C.ar    1  UNL1        0.0320
     12 C         138.1796  144.3262  155.5620 C.ar    1  UNL1        0.1674
     13 F         137.3999  144.5460  154.2996 F       1  UNL1       -0.2018
     14 C         139.2117  145.3271  155.9899 C.ar    1  UNL1        0.1674
     15 F         139.4642  146.5476  155.1553 F       1  UNL1       -0.2018
     16 C         139.9914  145.1074  157.2523 C.ar    1  UNL1        0.0336
     17 O         142.6442  144.0873  160.7832 O.2     1  UNL1       -0.3773
     18 C         141.9686  143.9826  163.2897 C.3     1  UNL1        0.0543
     19 C         142.2344  144.7814  162.0482 C.3     1  UNL1        0.2386
     20 C         138.2546  140.2282  163.7137 C.3     1  UNL1        0.1007
     21 N         138.8587  140.2637  165.0863 N.3     1  UNL1       -0.2687
     22 C         140.1207  141.0368  165.3304 C.3     1  UNL1        0.0751
     23 C         140.7248  141.0724  166.7029 C.3     1  UNL1        0.0489
     24 C         140.0669  140.3348  167.8313 C.3     1  UNL1        0.1157
     25 C         138.8049  139.5616  167.5871 C.3     1  UNL1        0.0489
     26 C         138.2008  139.5261  166.2146 C.3     1  UNL1        0.0751
     27 O         139.5252  139.6500  169.0510 O.3     1  UNL1       -0.3496
     28 C         140.4423  139.9534  170.1987 C.3     1  UNL1        0.1687
     29 C         141.5508  140.8256  169.6882 C.ar    1  UNL1        0.0108
     30 C         142.7414  141.4357  170.3665 C.ar    1  UNL1        0.0476
     31 C         143.7000  142.2814  169.5819 C.ar    1  UNL1        0.2221
     32 F         144.8906  142.8914  170.2603 F       1  UNL1       -0.1832
     33 N         143.4680  142.5171  168.1188 N.ar    1  UNL1       -0.2167
     34 C         142.2774  141.9071  167.4404 C.ar    1  UNL1        0.0990
     35 C         141.3188  141.0613  168.2251 C.ar    1  UNL1        0.0198
@<TRIPOS>BOND
     1    18    19    1
     2    19    17    1
     3    17     7    1
     4     7     8    2
     5     8     9    1
     6     9    10   ar
     7    10    11   ar
     8    11    12   ar
     9    12    13    1
    10    12    14   ar
    11    14    15    1
    12    14    16   ar
    13     8     1    1
    14     1     2   ar
    15     2     3   ar
    16     3     4   ar
    17     4    20    1
    18    20    21    1
    19    21    22    1
    20    22    23    1
    21    23    24    1
    22    24    25    1
    23    25    26    1
    24    24    27    1
    25    27    28    1
    26    28    29    1
    27    29    30   ar
    28    30    31   ar
    29    31    32    1
    30    31    33   ar
    31    33    34   ar
    32    34    35   ar
    33     4     5   ar
    34     5     6   ar
    35    16     9   ar
    36     6     1   ar
    37    26    21    1
    38    35    29   ar
    39    35    24    1
@<TRIPOS>MOLECULE
*****
 35 39 0 0 0
SMALL
GASTEIGER

@<TRIPOS>ATOM
      1 C         141.2664  139.0184  159.8824 C.ar    1  UNL1        0.1020
      2 C         142.0076  140.3223  159.9022 C.ar    1  UNL1        0.0205
      3 C         142.9515  140.6315  161.0262 C.ar    1  UNL1        0.0002
      4 C         143.1544  139.6366  162.1304 C.ar    1  UNL1        0.0130
      5 C         142.4132  138.3327  162.1106 C.ar    1  UNL1        0.0959
      6 N         141.4692  138.0236  160.9865 N.ar    1  UNL1       -0.2425
      7 N         138.9150  139.2269  158.7972 N.2     1  UNL1       -0.0815
      8 C         140.3224  138.7093  158.7584 C.2     1  UNL1        0.1369
      9 C         140.7857  137.8826  157.5958 C.ar    1  UNL1        0.0247
     10 C         139.8021  137.4310  156.5573 C.ar    1  UNL1        0.0041
     11 C         140.2654  136.6043  155.3946 C.ar    1  UNL1        0.0320
     12 C         141.7124  136.2291  155.2704 C.ar    1  UNL1        0.1674
     13 F         142.1757  135.4024  154.1077 F       1  UNL1       -0.2018
     14 C         142.6962  136.6807  156.3089 C.ar    1  UNL1        0.1674
     15 F         144.1431  136.3056  156.1846 F       1  UNL1       -0.2018
     16 C         142.2328  137.5075  157.4715 C.ar    1  UNL1        0.0336
     17 O         138.4517  140.0536  159.9598 O.2     1  UNL1       -0.3773
     18 C         138.1556  138.7504  162.1878 C.3     1  UNL1        0.0543
     19 C         137.5585  139.4483  161.0019 C.3     1  UNL1        0.2386
     20 C         144.0983  139.9458  163.2543 C.3     1  UNL1        0.1007
     21 N         143.6119  139.9126  164.6729 N.3     1  UNL1       -0.2687
     22 C         142.7892  141.0459  165.2104 C.3     1  UNL1        0.0751
     23 C         142.3029  141.0127  166.6289 C.3     1  UNL1        0.0489
     24 C         142.6391  139.8463  167.5100 C.3     1  UNL1        0.1157
     25 C         143.4618  138.7130  166.9726 C.3     1  UNL1        0.0489
     26 C         143.9482  138.7462  165.5541 C.3     1  UNL1        0.0751
     27 O         142.8946  138.7527  168.5044 O.3     1  UNL1       -0.3496
     28 C         142.2252  139.1314  169.7923 C.3     1  UNL1        0.1687
     29 C         141.5560  140.4592  169.5938 C.ar    1  UNL1        0.0108
     30 C         140.7468  141.3230  170.5152 C.ar    1  UNL1        0.0476
     31 C         140.1935  142.6286  170.0262 C.ar    1  UNL1        0.2221
     32 F         139.3843  143.4924  170.9476 F       1  UNL1       -0.1832
     33 N         140.4493  143.0705  168.6157 N.ar    1  UNL1       -0.2167
     34 C         141.2585  142.2066  167.6943 C.ar    1  UNL1        0.0990
     35 C         141.8119  140.9010  168.1834 C.ar    1  UNL1        0.0198
@<TRIPOS>BOND
     1    18    19    1
     2    19    17    1
     3    17     7    1
     4     7     8    2
     5     8     9    1
     6     9    10   ar
     7    10    11   ar
     8    11    12   ar
     9    12    13    1
    10    12    14   ar
    11    14    15    1
    12    14    16   ar
    13     8     1    1
    14     1     2   ar
    15     2     3   ar
    16     3     4   ar
    17     4    20    1
    18    20    21    1
    19    21    22    1
    20    22    23    1
    21    23    24    1
    22    24    25    1
    23    25    26    1
    24    24    27    1
    25    27    28    1
    26    28    29    1
    27    29    30   ar
    28    30    31   ar
    29    31    32    1
    30    31    33   ar
    31    33    34   ar
    32    34    35   ar
    33     4     5   ar
    34     5     6   ar
    35    16     9   ar
    36     6     1   ar
    37    26    21    1
    38    35    29   ar
    39    35    24    1
@<TRIPOS>MOLECULE
*****
 35 39 0 0 0
SMALL
GASTEIGER

@<TRIPOS>ATOM
      1 C         140.0305  140.0078  161.9639 C.ar    1  UNL1        0.1020
      2 C         141.4218  140.4279  161.5930 C.ar    1  UNL1        0.0205
      3 C         141.8909  140.2997  160.1741 C.ar    1  UNL1        0.0002
      4 C         140.9685  139.7512  159.1259 C.ar    1  UNL1        0.0130
      5 C         139.5772  139.3310  159.4968 C.ar    1  UNL1        0.0959
      6 N         139.1081  139.4593  160.9158 N.ar    1  UNL1       -0.2425
      7 N         139.3545  138.9075  164.2184 N.2     1  UNL1       -0.0815
      8 C         139.5614  140.1361  163.3829 C.2     1  UNL1        0.1369
      9 C         139.2992  141.4928  163.9664 C.ar    1  UNL1        0.0247
     10 C         139.9910  141.9125  165.2294 C.ar    1  UNL1        0.0041
     11 C         139.7288  143.2692  165.8129 C.ar    1  UNL1        0.0320
     12 C         138.7749  144.2063  165.1334 C.ar    1  UNL1        0.1674
     13 F         138.5127  145.5631  165.7169 F       1  UNL1       -0.2018
     14 C         138.0830  143.7867  163.8703 C.ar    1  UNL1        0.1674
     15 F         137.1291  144.7238  163.1908 F       1  UNL1       -0.2018
     16 C         138.3452  142.4299  163.2868 C.ar    1  UNL1        0.0336
     17 O         139.6167  137.5508  163.6349 O.2     1  UNL1       -0.3773
     18 C         142.1259  137.7531  164.2775 C.3     1  UNL1        0.0543
     19 C         140.9878  136.9489  163.7225 C.3     1  UNL1        0.2386
     20 C         141.4376  139.6229  157.7069 C.3     1  UNL1        0.1007
     21 N         141.5484  138.2678  157.0732 N.3     1  UNL1       -0.2687
     22 C         142.5172  137.2614  157.6194 C.3     1  UNL1        0.0751
     23 C         142.6280  135.9064  156.9856 C.3     1  UNL1        0.0489
     24 C         141.7698  135.5578  155.8058 C.3     1  UNL1        0.1157
     25 C         140.8010  136.5643  155.2596 C.3     1  UNL1        0.0489
     26 C         140.6903  137.9193  155.8933 C.3     1  UNL1        0.0751
     27 O         140.9816  135.0686  154.6270 O.3     1  UNL1       -0.3496
     28 C         141.4129  133.6625  154.3322 C.3     1  UNL1        0.1687
     29 C         142.4677  133.2826  155.3288 C.ar    1  UNL1        0.0108
     30 C         143.2558  132.0215  155.5247 C.ar    1  UNL1        0.0476
     31 C         144.2645  131.9317  156.6312 C.ar    1  UNL1        0.2221
     32 F         145.0526  130.6705  156.8270 F       1  UNL1       -0.1832
     33 N         144.4852  133.1030  157.5419 N.ar    1  UNL1       -0.2167
     34 C         143.6971  134.3642  157.3460 C.ar    1  UNL1        0.0990
     35 C         142.6883  134.4540  156.2395 C.ar    1  UNL1        0.0198
@<TRIPOS>BOND
     1    18    19    1
     2    19    17    1
     3    17     7    1
     4     7     8    2
     5     8     9    1
     6     9    10   ar
     7    10    11   ar
     8    11    12   ar
     9    12    13    1
    10    12    14   ar
    11    14    15    1
    12    14    16   ar
    13     8     1    1
    14     1     2   ar
    15     2     3   ar
    16     3     4   ar
    17     4    20    1
    18    20    21    1
    19    21    22    1
    20    22    23    1
    21    23    24    1
    22    24    25    1
    23    25    26    1
    24    24    27    1
    25    27    28    1
    26    28    29    1
    27    29    30   ar
    28    30    31   ar
    29    31    32    1
    30    31    33   ar
    31    33    34   ar
    32    34    35   ar
    33     4     5   ar
    34     5     6   ar
    35    16     9   ar
    36     6     1   ar
    37    26    21    1
    38    35    29   ar
    39    35    24    1
@<TRIPOS>MOLECULE
*****
 35 39 0 0 0
SMALL
GASTEIGER

@<TRIPOS>ATOM
      1 C         139.9483  141.0870  159.5931 C.ar    1  UNL1        0.1020
      2 C         139.1517  140.6137  158.4135 C.ar    1  UNL1        0.0205
      3 C         139.8387  139.9230  157.2729 C.ar    1  UNL1        0.0002
      4 C         141.3224  139.7055  157.3119 C.ar    1  UNL1        0.0130
      5 C         142.1190  140.1788  158.4915 C.ar    1  UNL1        0.0959
      6 N         141.4319  140.8695  159.6321 N.ar    1  UNL1       -0.2425
      7 N         138.8899  143.2265  160.6189 N.2     1  UNL1       -0.0815
      8 C         139.2613  141.7777  160.7337 C.2     1  UNL1        0.1369
      9 C         138.9458  141.0197  161.9890 C.ar    1  UNL1        0.0247
     10 C         138.6675  141.7610  163.2629 C.ar    1  UNL1        0.0041
     11 C         138.3520  141.0030  164.5182 C.ar    1  UNL1        0.0320
     12 C         138.3147  139.5036  164.4996 C.ar    1  UNL1        0.1674
     13 F         137.9991  138.7456  165.7550 F       1  UNL1       -0.2018
     14 C         138.5930  138.7622  163.2257 C.ar    1  UNL1        0.1674
     15 F         138.5557  137.2628  163.2071 F       1  UNL1       -0.2018
     16 C         138.9085  139.5202  161.9704 C.ar    1  UNL1        0.0336
     17 O         139.2054  143.9845  159.3636 O.2     1  UNL1       -0.3773
     18 C         141.7608  144.4114  159.1691 C.3     1  UNL1        0.0543
     19 C         140.3649  144.9355  159.3332 C.3     1  UNL1        0.2386
     20 C         142.0093  139.0148  156.1713 C.3     1  UNL1        0.1007
     21 N         142.0090  137.5169  156.0919 N.3     1  UNL1       -0.2687
     22 C         143.0261  136.7249  156.8590 C.3     1  UNL1        0.0751
     23 C         143.0257  135.2271  156.7795 C.3     1  UNL1        0.0489
     24 C         142.0083  134.5212  155.9330 C.3     1  UNL1        0.1157
     25 C         140.9913  135.3131  155.1659 C.3     1  UNL1        0.0489
     26 C         140.9917  136.8110  155.2454 C.3     1  UNL1        0.0751
     27 O         141.0579  133.6809  155.1326 O.3     1  UNL1       -0.3496
     28 C         141.4205  132.2409  155.3449 C.3     1  UNL1        0.1687
     29 C         142.5951  132.1912  156.2765 C.ar    1  UNL1        0.0108
     30 C         143.3809  131.0449  156.8409 C.ar    1  UNL1        0.0476
     31 C         144.5298  131.3077  157.7686 C.ar    1  UNL1        0.2221
     32 F         145.3155  130.1613  158.3329 F       1  UNL1       -0.1832
     33 N         144.8931  132.7170  158.1321 N.ar    1  UNL1       -0.2167
     34 C         144.1074  133.8633  157.5678 C.ar    1  UNL1        0.0990
     35 C         142.9584  133.6005  156.6400 C.ar    1  UNL1        0.0198
@<TRIPOS>BOND
     1    18    19    1
     2    19    17    1
     3    17     7    1
     4     7     8    2
     5     8     9    1
     6     9    10   ar
     7    10    11   ar
     8    11    12   ar
     9    12    13    1
    10    12    14   ar
    11    14    15    1
    12    14    16   ar
    13     8     1    1
    14     1     2   ar
    15     2     3   ar
    16     3     4   ar
    17     4    20    1
    18    20    21    1
    19    21    22    1
    20    22    23    1
    21    23    24    1
    22    24    25    1
    23    25    26    1
    24    24    27    1
    25    27    28    1
    26    28    29    1
    27    29    30   ar
    28    30    31   ar
    29    31    32    1
    30    31    33   ar
    31    33    34   ar
    32    34    35   ar
    33     4     5   ar
    34     5     6   ar
    35    16     9   ar
    36     6     1   ar
    37    26    21    1
    38    35    29   ar
    39    35    24    1
@<TRIPOS>MOLECULE
*****
 35 39 0 0 0
SMALL
GASTEIGER

@<TRIPOS>ATOM
      1 C         142.3545  136.9185  157.1834 C.ar    1  UNL1        0.1020
      2 C         140.9924  137.1418  156.5962 C.ar    1  UNL1        0.0205
      3 C         140.0009  138.0114  157.3108 C.ar    1  UNL1        0.0002
      4 C         140.3714  138.6578  158.6127 C.ar    1  UNL1        0.0130
      5 C         141.7335  138.4345  159.2000 C.ar    1  UNL1        0.0959
      6 N         142.7250  137.5648  158.4853 N.ar    1  UNL1       -0.2425
      7 N         144.5085  136.6695  155.7523 N.2     1  UNL1       -0.0815
      8 C         143.3460  136.0489  156.4689 C.2     1  UNL1        0.1369
      9 C         143.1750  134.5587  156.4708 C.ar    1  UNL1        0.0247
     10 C         142.1312  133.9224  155.6016 C.ar    1  UNL1        0.0041
     11 C         141.9603  132.4321  155.6036 C.ar    1  UNL1        0.0320
     12 C         142.8331  131.5782  156.4747 C.ar    1  UNL1        0.1674
     13 F         142.6622  130.0880  156.4767 F       1  UNL1       -0.2018
     14 C         143.8770  132.2146  157.3440 C.ar    1  UNL1        0.1674
     15 F         144.7498  131.3607  158.2151 F       1  UNL1       -0.2018
     16 C         144.0479  133.7048  157.3420 C.ar    1  UNL1        0.0336
     17 O         144.6794  138.1598  155.7503 O.2     1  UNL1       -0.3773
     18 C         142.8788  139.4298  154.3738 C.3     1  UNL1        0.0543
     19 C         144.2927  138.9575  154.5403 C.3     1  UNL1        0.2386
     20 C         139.3800  139.5274  159.3273 C.3     1  UNL1        0.1007
     21 N         139.7268  140.1211  160.6605 N.3     1  UNL1       -0.2687
     22 C         139.2386  139.4709  161.9209 C.3     1  UNL1        0.0751
     23 C         139.5855  140.0646  163.2540 C.3     1  UNL1        0.0489
     24 C         140.4206  141.3085  163.3266 C.3     1  UNL1        0.1157
     25 C         140.9088  141.9587  162.0661 C.3     1  UNL1        0.0489
     26 C         140.5620  141.3650  160.7331 C.3     1  UNL1        0.0751
     27 O         141.2426  142.5422  163.5553 O.3     1  UNL1       -0.3496
     28 C         141.3364  142.7689  165.0352 C.3     1  UNL1        0.1687
     29 C         140.5724  141.6753  165.7211 C.ar    1  UNL1        0.0108
     30 C         140.3189  141.3848  167.1706 C.ar    1  UNL1        0.0476
     31 C         139.4995  140.1918  167.5643 C.ar    1  UNL1        0.2221
     32 F         139.2460  139.9012  169.0139 F       1  UNL1       -0.1832
     33 N         138.9334  139.2891  166.5084 N.ar    1  UNL1       -0.2167
     34 C         139.1869  139.5797  165.0588 C.ar    1  UNL1        0.0990
     35 C         140.0064  140.7728  164.6651 C.ar    1  UNL1        0.0198
@<TRIPOS>BOND
     1    18    19    1
     2    19    17    1
     3    17     7    1
     4     7     8    2
     5     8     9    1
     6     9    10   ar
     7    10    11   ar
     8    11    12   ar
     9    12    13    1
    10    12    14   ar
    11    14    15    1
    12    14    16   ar
    13     8     1    1
    14     1     2   ar
    15     2     3   ar
    16     3     4   ar
    17     4    20    1
    18    20    21    1
    19    21    22    1
    20    22    23    1
    21    23    24    1
    22    24    25    1
    23    25    26    1
    24    24    27    1
    25    27    28    1
    26    28    29    1
    27    29    30   ar
    28    30    31   ar
    29    31    32    1
    30    31    33   ar
    31    33    34   ar
    32    34    35   ar
    33     4     5   ar
    34     5     6   ar
    35    16     9   ar
    36     6     1   ar
    37    26    21    1
    38    35    29   ar
    39    35    24    1
@<TRIPOS>MOLECULE
*****
 35 39 0 0 0
SMALL
GASTEIGER

@<TRIPOS>ATOM
      1 C         141.4451  140.6062  161.2520 C.ar    1  UNL1        0.1020
      2 C         142.4882  141.1885  160.3448 C.ar    1  UNL1        0.0205
      3 C         142.5646  140.7515  158.9120 C.ar    1  UNL1        0.0002
      4 C         141.5978  139.7322  158.3862 C.ar    1  UNL1        0.0130
      5 C         140.5547  139.1499  159.2933 C.ar    1  UNL1        0.0959
      6 N         140.4784  139.5870  160.7262 N.ar    1  UNL1       -0.2425
      7 N         140.6253  142.2942  163.0489 N.2     1  UNL1       -0.0815
      8 C         141.3688  141.0432  162.6848 C.2     1  UNL1        0.1369
      9 C         142.0359  140.2293  163.7537 C.ar    1  UNL1        0.0247
     10 C         141.2164  139.6137  164.8489 C.ar    1  UNL1        0.0041
     11 C         141.8835  138.7998  165.9178 C.ar    1  UNL1        0.0320
     12 C         143.3701  138.6015  165.8916 C.ar    1  UNL1        0.1674
     13 F         144.0371  137.7876  166.9605 F       1  UNL1       -0.2018
     14 C         144.1896  139.2172  164.7964 C.ar    1  UNL1        0.1674
     15 F         145.6762  139.0189  164.7701 F       1  UNL1       -0.2018
     16 C         143.5225  140.0311  163.7275 C.ar    1  UNL1        0.0336
     17 O         139.9582  143.1081  161.9800 O.2     1  UNL1       -0.3773
     18 C         137.7136  141.8763  162.4212 C.3     1  UNL1        0.0543
     19 C         138.5359  142.8231  161.5981 C.3     1  UNL1        0.2386
     20 C         141.6742  139.2952  156.9533 C.3     1  UNL1        0.1007
     21 N         141.7551  137.8354  156.6176 N.3     1  UNL1       -0.2687
     22 C         142.7370  136.9549  157.3320 C.3     1  UNL1        0.0751
     23 C         142.8178  135.4952  156.9964 C.3     1  UNL1        0.0489
     24 C         141.9168  134.9161  155.9463 C.3     1  UNL1        0.1157
     25 C         140.9348  135.7966  155.2319 C.3     1  UNL1        0.0489
     26 C         140.8540  137.2563  155.5676 C.3     1  UNL1        0.0751
     27 O         141.0847  134.1988  154.9248 O.3     1  UNL1       -0.3496
     28 C         141.4976  132.7567  154.9204 C.3     1  UNL1        0.1687
     29 C         142.5848  132.5827  155.9391 C.ar    1  UNL1        0.0108
     30 C         143.3724  131.3815  156.3714 C.ar    1  UNL1        0.0476
     31 C         144.4189  131.5147  157.4376 C.ar    1  UNL1        0.2221
     32 F         145.2064  130.3135  157.8698 F       1  UNL1       -0.1832
     33 N         144.6780  132.8493  158.0717 N.ar    1  UNL1       -0.2167
     34 C         143.8904  134.0505  157.6394 C.ar    1  UNL1        0.0990
     35 C         142.8438  133.9172  156.5732 C.ar    1  UNL1        0.0198
@<TRIPOS>BOND
     1    18    19    1
     2    19    17    1
     3    17     7    1
     4     7     8    2
     5     8     9    1
     6     9    10   ar
     7    10    11   ar
     8    11    12   ar
     9    12    13    1
    10    12    14   ar
    11    14    15    1
    12    14    16   ar
    13     8     1    1
    14     1     2   ar
    15     2     3   ar
    16     3     4   ar
    17     4    20    1
    18    20    21    1
    19    21    22    1
    20    22    23    1
    21    23    24    1
    22    24    25    1
    23    25    26    1
    24    24    27    1
    25    27    28    1
    26    28    29    1
    27    29    30   ar
    28    30    31   ar
    29    31    32    1
    30    31    33   ar
    31    33    34   ar
    32    34    35   ar
    33     4     5   ar
    34     5     6   ar
    35    16     9   ar
    36     6     1   ar
    37    26    21    1
    38    35    29   ar
    39    35    24    1
@<TRIPOS>MOLECULE
*****
 35 39 0 0 0
SMALL
GASTEIGER

@<TRIPOS>ATOM
      1 C         141.1991  140.2023  161.1040 C.ar    1  UNL1        0.1020
      2 C         142.5643  139.6642  160.7933 C.ar    1  UNL1        0.0205
      3 C         142.8897  139.2014  159.4041 C.ar    1  UNL1        0.0002
      4 C         141.8499  139.2767  158.3256 C.ar    1  UNL1        0.0130
      5 C         140.4846  139.8148  158.6363 C.ar    1  UNL1        0.0959
      6 N         140.1592  140.2776  160.0256 N.ar    1  UNL1       -0.2425
      7 N         141.2667  142.0434  162.9360 N.2     1  UNL1       -0.0815
      8 C         140.8737  140.6651  162.4932 C.2     1  UNL1        0.1369
      9 C         140.1552  139.7497  163.4397 C.ar    1  UNL1        0.0247
     10 C         139.7650  138.3704  162.9981 C.ar    1  UNL1        0.0041
     11 C         139.0465  137.4550  163.9446 C.ar    1  UNL1        0.0320
     12 C         138.7183  137.9189  165.3327 C.ar    1  UNL1        0.1674
     13 F         137.9998  137.0035  166.2792 F       1  UNL1       -0.2018
     14 C         139.1085  139.2983  165.7744 C.ar    1  UNL1        0.1674
     15 F         138.7802  139.7623  167.1625 F       1  UNL1       -0.2018
     16 C         139.8269  140.2137  164.8279 C.ar    1  UNL1        0.0336
     17 O         141.9852  142.9588  161.9895 O.2     1  UNL1       -0.3773
     18 C         143.8941  144.5226  162.8021 C.3     1  UNL1        0.0543
     19 C         143.4477  143.2341  162.1773 C.3     1  UNL1        0.2386
     20 C         142.1753  138.8139  156.9364 C.3     1  UNL1        0.1007
     21 N         142.1269  137.3524  156.6021 N.3     1  UNL1       -0.2687
     22 C         143.0706  136.3982  157.2721 C.3     1  UNL1        0.0751
     23 C         143.0222  134.9367  156.9378 C.3     1  UNL1        0.0489
     24 C         142.0301  134.4295  155.9335 C.3     1  UNL1        0.1157
     25 C         141.0865  135.3837  155.2636 C.3     1  UNL1        0.0489
     26 C         141.1349  136.8451  155.5979 C.3     1  UNL1        0.0751
     27 O         141.0975  133.7792  154.9550 O.3     1  UNL1       -0.3496
     28 C         141.3969  132.3095  154.9358 C.3     1  UNL1        0.1687
     29 C         142.5145  132.0514  155.9025 C.ar    1  UNL1        0.0108
     30 C         143.2264  130.7926  156.3009 C.ar    1  UNL1        0.0476
     31 C         144.3296  130.8440  157.3158 C.ar    1  UNL1        0.2221
     32 F         145.0415  129.5853  157.7142 F       1  UNL1       -0.1832
     33 N         144.7210  132.1543  157.9325 N.ar    1  UNL1       -0.2167
     34 C         144.0091  133.4130  157.5341 C.ar    1  UNL1        0.0990
     35 C         142.9059  133.3616  156.5191 C.ar    1  UNL1        0.0198
@<TRIPOS>BOND
     1    18    19    1
     2    19    17    1
     3    17     7    1
     4     7     8    2
     5     8     9    1
     6     9    10   ar
     7    10    11   ar
     8    11    12   ar
     9    12    13    1
    10    12    14   ar
    11    14    15    1
    12    14    16   ar
    13     8     1    1
    14     1     2   ar
    15     2     3   ar
    16     3     4   ar
    17     4    20    1
    18    20    21    1
    19    21    22    1
    20    22    23    1
    21    23    24    1
    22    24    25    1
    23    25    26    1
    24    24    27    1
    25    27    28    1
    26    28    29    1
    27    29    30   ar
    28    30    31   ar
    29    31    32    1
    30    31    33   ar
    31    33    34   ar
    32    34    35   ar
    33     4     5   ar
    34     5     6   ar
    35    16     9   ar
    36     6     1   ar
    37    26    21    1
    38    35    29   ar
    39    35    24    1
