@<TRIPOS>MOLECULE
*****
 33 37 0 0 0
SMALL
GASTEIGER

@<TRIPOS>ATOM
      1 O         141.7923  137.2326  162.1350 O.2     1  UNL1       -0.4710
      2 C         140.5460  140.8669  168.8103 C.3     1  UNL1        0.0458
      3 C         142.0237  141.1088  168.7216 C.3     1  UNL1        0.0110
      4 C         142.5225  140.4729  167.4579 C.3     1  UNL1        0.0280
      5 C         141.3530  139.8381  166.7655 C.2     1  UNL1       -0.0074
      6 C         140.1315  140.0815  167.6014 C.2     1  UNL1        0.0547
      7 N         138.9620  139.4467  166.9091 N.2     1  UNL1       -0.2540
      8 C         139.4607  138.8108  165.6454 C.2     1  UNL1        0.0628
      9 C         138.7602  138.0429  164.5640 C.3     1  UNL1        0.0749
     10 C         139.5374  137.5168  163.3939 C.2     1  UNL1        0.0171
     11 C         141.0151  137.7587  163.3052 C.2     1  UNL1        0.1352
     12 C         141.7156  138.5267  164.3865 C.2     1  UNL1        0.0375
     13 C         140.9384  139.0527  165.5566 C.2     1  UNL1        0.0140
     14 C         139.6416  141.3291  169.9141 C.3     1  UNL1        0.0476
     15 O         140.5949  142.2007  172.1683 O.co2   1  UNL1       -0.5492
     16 C         140.0560  142.4705  170.7948 C.2     1  UNL1        0.0507
     17 O         139.9315  143.8817  170.3018 O.co2   1  UNL1       -0.5492
     18 C         142.0861  138.1264  160.9668 C.3     1  UNL1        0.2320
     19 C         141.6840  139.5710  161.0080 C.ar    1  UNL1        0.0211
     20 C         140.2843  139.9705  160.6459 C.ar    1  UNL1       -0.0010
     21 C         139.8823  141.4150  160.6871 C.ar    1  UNL1       -0.0045
     22 C         140.8800  142.4600  161.0903 C.ar    1  UNL1       -0.0186
     23 C         142.2797  142.0605  161.4524 C.ar    1  UNL1        0.0673
     24 C         142.6817  140.6160  161.4112 C.ar    1  UNL1        0.0028
     25 C         140.4779  143.9046  161.1315 C.3     1  UNL1        0.0223
     26 C         140.4896  144.8564  159.9722 C.3     1  UNL1        0.0043
     27 C         140.0125  146.1910  160.4633 C.3     1  UNL1        0.0003
     28 C         139.7059  146.0640  161.9262 C.3     1  UNL1        0.0003
     29 C         139.9935  144.6509  162.3391 C.3     1  UNL1        0.0043
     30 C         143.2774  143.1055  161.8556 C.3     1  UNL1        0.4183
     31 F         144.2751  144.1505  162.2589 F       1  UNL1       -0.1659
     32 F         142.8419  142.9699  163.2846 F       1  UNL1       -0.1659
     33 F         143.7129  143.2411  160.4267 F       1  UNL1       -0.1659
@<TRIPOS>UNITY_ATOM_ATTR
15 1
charge -1
@<TRIPOS>BOND
     1    15    16   ar
     2    16    17   ar
     3    16    14    1
     4     2    14    1
     5     2     3    1
     6     3     4    1
     7     4     5    1
     8     5     6    2
     9     6     7    1
    10     7     8    2
    11     8     9    1
    12     9    10    1
    13    10    11    2
    14    11     1    1
    15     1    18    1
    16    18    19    1
    17    19    20   ar
    18    20    21   ar
    19    21    22   ar
    20    22    25    1
    21    25    26    1
    22    26    27    1
    23    27    28    1
    24    28    29    1
    25    22    23   ar
    26    23    30    1
    27    30    31    1
    28    30    32    1
    29    30    33    1
    30    23    24   ar
    31    11    12    1
    32    12    13    2
    33     6     2    1
    34    13     8    1
    35    13     5    1
    36    24    19   ar
    37    29    25    1
@<TRIPOS>MOLECULE
*****
 33 37 0 0 0
SMALL
GASTEIGER

@<TRIPOS>ATOM
      1 O         137.8190  138.4771  162.3777 O.2     1  UNL1       -0.4710
      2 C         140.9868  144.1818  158.2859 C.3     1  UNL1        0.0458
      3 C         141.5954  143.0338  157.5365 C.3     1  UNL1        0.0110
      4 C         141.1128  141.7609  158.1665 C.3     1  UNL1        0.0280
      5 C         140.2058  142.1224  159.3054 C.2     1  UNL1       -0.0074
      6 C         140.1280  143.6185  159.3791 C.2     1  UNL1        0.0547
      7 N         139.2210  143.9798  160.5179 N.2     1  UNL1       -0.2540
      8 C         138.7384  142.7070  161.1480 C.2     1  UNL1        0.0628
      9 C         137.8233  142.4451  162.3073 C.3     1  UNL1        0.0749
     10 C         137.5168  141.0351  162.7172 C.2     1  UNL1        0.0171
     11 C         138.1255  139.8871  161.9677 C.2     1  UNL1        0.1352
     12 C         139.0405  140.1490  160.8085 C.2     1  UNL1        0.0375
     13 C         139.3470  141.5590  160.3986 C.2     1  UNL1        0.0140
     14 C         141.1996  145.6376  157.9935 C.3     1  UNL1        0.0476
     15 O         141.2296  145.9938  155.4201 O.co2   1  UNL1       -0.5492
     16 C         140.6050  146.2494  156.7597 C.2     1  UNL1        0.0507
     17 O         139.3858  147.1168  156.8655 O.co2   1  UNL1       -0.5492
     18 C         138.8235  137.6900  163.1659 C.3     1  UNL1        0.2320
     19 C         139.5909  138.3493  164.2735 C.ar    1  UNL1        0.0211
     20 C         138.8593  138.9754  165.4235 C.ar    1  UNL1       -0.0010
     21 C         139.6267  139.6347  166.5309 C.ar    1  UNL1       -0.0045
     22 C         141.1257  139.6677  166.4883 C.ar    1  UNL1       -0.0186
     23 C         141.8573  139.0416  165.3383 C.ar    1  UNL1        0.0673
     24 C         141.0899  138.3823  164.2309 C.ar    1  UNL1        0.0028
     25 C         141.8931  140.3270  167.5959 C.3     1  UNL1        0.0223
     26 C         142.3080  139.6833  168.8857 C.3     1  UNL1        0.0043
     27 C         143.0516  140.7041  169.6950 C.3     1  UNL1        0.0003
     28 C         143.0963  141.9787  168.9053 C.3     1  UNL1        0.0003
     29 C         142.3803  141.7456  167.6080 C.3     1  UNL1        0.0043
     30 C         143.3564  139.0746  165.2957 C.3     1  UNL1        0.4183
     31 F         144.8554  139.1077  165.2532 F       1  UNL1       -0.1659
     32 F         143.4065  137.7823  166.0556 F       1  UNL1       -0.1659
     33 F         143.3063  140.3670  164.5359 F       1  UNL1       -0.1659
@<TRIPOS>UNITY_ATOM_ATTR
15 1
charge -1
@<TRIPOS>BOND
     1    15    16   ar
     2    16    17   ar
     3    16    14    1
     4     2    14    1
     5     2     3    1
     6     3     4    1
     7     4     5    1
     8     5     6    2
     9     6     7    1
    10     7     8    2
    11     8     9    1
    12     9    10    1
    13    10    11    2
    14    11     1    1
    15     1    18    1
    16    18    19    1
    17    19    20   ar
    18    20    21   ar
    19    21    22   ar
    20    22    25    1
    21    25    26    1
    22    26    27    1
    23    27    28    1
    24    28    29    1
    25    22    23   ar
    26    23    30    1
    27    30    31    1
    28    30    32    1
    29    30    33    1
    30    23    24   ar
    31    11    12    1
    32    12    13    2
    33     6     2    1
    34    13     8    1
    35    13     5    1
    36    24    19   ar
    37    29    25    1
@<TRIPOS>MOLECULE
*****
 33 37 0 0 0
SMALL
GASTEIGER

@<TRIPOS>ATOM
      1 O         138.3992  137.9922  162.8933 O.2     1  UNL1       -0.4710
      2 C         140.2295  144.0028  158.4385 C.3     1  UNL1        0.0458
      3 C         141.0247  142.9611  157.7088 C.3     1  UNL1        0.0110
      4 C         140.8257  141.6502  158.4102 C.3     1  UNL1        0.0280
      5 C         139.9073  141.8818  159.5735 C.2     1  UNL1       -0.0074
      6 C         139.5389  143.3357  159.5909 C.2     1  UNL1        0.0547
      7 N         138.6206  143.5672  160.7542 N.2     1  UNL1       -0.2540
      8 C         138.4215  142.2563  161.4556 C.2     1  UNL1        0.0628
      9 C         137.6188  141.8766  162.6646 C.3     1  UNL1        0.0749
     10 C         137.6114  140.4553  163.1437 C.2     1  UNL1        0.0171
     11 C         138.4067  139.4136  162.4140 C.2     1  UNL1        0.1352
     12 C         139.2093  139.7933  161.2051 C.2     1  UNL1        0.0375
     13 C         139.2168  141.2147  160.7259 C.2     1  UNL1        0.0140
     14 C         140.1404  145.4563  158.0789 C.3     1  UNL1        0.0476
     15 O         140.8724  146.5169  155.8230 O.co2   1  UNL1       -0.5492
     16 C         141.1994  146.0829  157.2210 C.2     1  UNL1        0.0507
     17 O         142.5855  146.2754  157.7613 O.co2   1  UNL1       -0.5492
     18 C         139.2732  137.5834  164.0417 C.3     1  UNL1        0.2320
     19 C         139.5276  138.5404  165.1684 C.ar    1  UNL1        0.0211
     20 C         138.5099  138.7035  166.2582 C.ar    1  UNL1       -0.0010
     21 C         138.7643  139.6605  167.3848 C.ar    1  UNL1       -0.0045
     22 C         140.0365  140.4544  167.4217 C.ar    1  UNL1       -0.0186
     23 C         141.0542  140.2913  166.3319 C.ar    1  UNL1        0.0673
     24 C         140.7997  139.3343  165.2053 C.ar    1  UNL1        0.0028
     25 C         140.2909  141.4114  168.5484 C.3     1  UNL1        0.0223
     26 C         140.3662  142.9053  168.4363 C.3     1  UNL1        0.0043
     27 C         140.6365  143.4598  169.8036 C.3     1  UNL1        0.0003
     28 C         140.7282  142.3085  170.7608 C.3     1  UNL1        0.0003
     29 C         140.5146  141.0426  169.9850 C.3     1  UNL1        0.0043
     30 C         142.3263  141.0852  166.3688 C.3     1  UNL1        0.4183
     31 F         143.5984  141.8792  166.4057 F       1  UNL1       -0.1659
     32 F         142.9450  140.0523  167.2633 F       1  UNL1       -0.1659
     33 F         141.7076  142.1182  165.4742 F       1  UNL1       -0.1659
@<TRIPOS>UNITY_ATOM_ATTR
15 1
charge -1
@<TRIPOS>BOND
     1    15    16   ar
     2    16    17   ar
     3    16    14    1
     4     2    14    1
     5     2     3    1
     6     3     4    1
     7     4     5    1
     8     5     6    2
     9     6     7    1
    10     7     8    2
    11     8     9    1
    12     9    10    1
    13    10    11    2
    14    11     1    1
    15     1    18    1
    16    18    19    1
    17    19    20   ar
    18    20    21   ar
    19    21    22   ar
    20    22    25    1
    21    25    26    1
    22    26    27    1
    23    27    28    1
    24    28    29    1
    25    22    23   ar
    26    23    30    1
    27    30    31    1
    28    30    32    1
    29    30    33    1
    30    23    24   ar
    31    11    12    1
    32    12    13    2
    33     6     2    1
    34    13     8    1
    35    13     5    1
    36    24    19   ar
    37    29    25    1
@<TRIPOS>MOLECULE
*****
 33 37 0 0 0
SMALL
GASTEIGER

@<TRIPOS>ATOM
      1 O         144.9205  143.2559  162.1924 O.2     1  UNL1       -0.4710
      2 C         142.4430  138.0301  157.1056 C.3     1  UNL1        0.0458
      3 C         142.3292  139.2390  156.2248 C.3     1  UNL1        0.0110
      4 C         142.7718  140.4333  157.0172 C.3     1  UNL1        0.0280
      5 C         143.1592  139.9625  158.3878 C.2     1  UNL1       -0.0074
      6 C         142.9560  138.4773  158.4424 C.2     1  UNL1        0.0547
      7 N         143.3434  138.0066  159.8129 N.2     1  UNL1       -0.2540
      8 C         143.7860  139.2008  160.6053 C.2     1  UNL1        0.0628
      9 C         144.2780  139.3437  162.0151 C.3     1  UNL1        0.0749
     10 C         144.6561  140.6954  162.5441 C.2     1  UNL1        0.0171
     11 C         144.5423  141.9042  161.6633 C.2     1  UNL1        0.1352
     12 C         144.0503  141.7613  160.2535 C.2     1  UNL1        0.0375
     13 C         143.6722  140.4096  159.7246 C.2     1  UNL1        0.0140
     14 C         142.1035  136.6215  156.7178 C.3     1  UNL1        0.0476
     15 O         144.1369  135.5898  155.4725 O.co2   1  UNL1       -0.5492
     16 C         143.1853  135.5859  156.6318 C.2     1  UNL1        0.0507
     17 O         143.3153  134.5463  157.7054 O.co2   1  UNL1       -0.5492
     18 C         143.8982  144.0992  162.8950 C.3     1  UNL1        0.2320
     19 C         143.1253  143.5341  164.0499 C.ar    1  UNL1        0.0211
     20 C         143.8521  142.9746  165.2367 C.ar    1  UNL1       -0.0010
     21 C         143.0793  142.4096  166.3914 C.ar    1  UNL1       -0.0045
     22 C         141.5797  142.4041  166.3593 C.ar    1  UNL1       -0.0186
     23 C         140.8529  142.9636  165.1724 C.ar    1  UNL1        0.0673
     24 C         141.6257  143.5286  164.0177 C.ar    1  UNL1        0.0028
     25 C         140.8068  141.8390  167.5141 C.3     1  UNL1        0.0223
     26 C         140.4717  142.5583  168.7870 C.3     1  UNL1        0.0043
     27 C         139.6912  141.6194  169.6583 C.3     1  UNL1        0.0003
     28 C         139.5440  140.3198  168.9239 C.3     1  UNL1        0.0003
     29 C         140.2334  140.4555  167.5987 C.3     1  UNL1        0.0043
     30 C         139.3532  142.9581  165.1403 C.3     1  UNL1        0.4183
     31 F         137.8536  142.9526  165.1081 F       1  UNL1       -0.1659
     32 F         139.3344  144.3117  165.7863 F       1  UNL1       -0.1659
     33 F         139.3720  141.6044  164.4943 F       1  UNL1       -0.1659
@<TRIPOS>UNITY_ATOM_ATTR
15 1
charge -1
@<TRIPOS>BOND
     1    15    16   ar
     2    16    17   ar
     3    16    14    1
     4     2    14    1
     5     2     3    1
     6     3     4    1
     7     4     5    1
     8     5     6    2
     9     6     7    1
    10     7     8    2
    11     8     9    1
    12     9    10    1
    13    10    11    2
    14    11     1    1
    15     1    18    1
    16    18    19    1
    17    19    20   ar
    18    20    21   ar
    19    21    22   ar
    20    22    25    1
    21    25    26    1
    22    26    27    1
    23    27    28    1
    24    28    29    1
    25    22    23   ar
    26    23    30    1
    27    30    31    1
    28    30    32    1
    29    30    33    1
    30    23    24   ar
    31    11    12    1
    32    12    13    2
    33     6     2    1
    34    13     8    1
    35    13     5    1
    36    24    19   ar
    37    29    25    1
@<TRIPOS>MOLECULE
*****
 33 37 0 0 0
SMALL
GASTEIGER

@<TRIPOS>ATOM
      1 O         143.9433  140.0363  161.2406 O.2     1  UNL1       -0.4710
      2 C         142.8823  141.9016  168.6377 C.3     1  UNL1        0.0458
      3 C         142.2452  140.5442  168.6784 C.3     1  UNL1        0.0110
      4 C         142.3289  139.9514  167.3030 C.3     1  UNL1        0.0280
      5 C         143.0178  140.9424  166.4122 C.2     1  UNL1       -0.0074
      6 C         143.3598  142.1477  167.2371 C.2     1  UNL1        0.0547
      7 N         144.0487  143.1386  166.3464 N.2     1  UNL1       -0.2540
      8 C         144.1324  142.5458  164.9710 C.2     1  UNL1        0.0628
      9 C         144.7065  143.0667  163.6869 C.3     1  UNL1        0.0749
     10 C         144.6434  142.2302  162.4434 C.2     1  UNL1        0.0171
     11 C         144.0063  140.8728  162.4841 C.2     1  UNL1        0.1352
     12 C         143.4322  140.3520  163.7683 C.2     1  UNL1        0.0375
     13 C         143.4953  141.1885  165.0117 C.2     1  UNL1        0.0140
     14 C         143.0182  142.8469  169.7943 C.3     1  UNL1        0.0476
     15 O         141.4793  142.3033  171.8159 O.co2   1  UNL1       -0.5492
     16 C         141.8239  143.1712  170.6420 C.2     1  UNL1        0.0507
     17 O         140.9741  144.3635  170.3158 O.co2   1  UNL1       -0.5492
     18 C         142.8771  138.9916  161.0927 C.3     1  UNL1        0.2320
     19 C         141.8797  138.7769  162.1923 C.ar    1  UNL1        0.0211
     20 C         142.1227  137.7212  163.2297 C.ar    1  UNL1       -0.0010
     21 C         141.1254  137.5065  164.3293 C.ar    1  UNL1       -0.0045
     22 C         139.8849  138.3476  164.3915 C.ar    1  UNL1       -0.0186
     23 C         139.6419  139.4034  163.3541 C.ar    1  UNL1        0.0673
     24 C         140.6393  139.6181  162.2545 C.ar    1  UNL1        0.0028
     25 C         138.8875  138.1329  165.4911 C.3     1  UNL1        0.0223
     26 C         138.1116  136.8744  165.7444 C.3     1  UNL1        0.0043
     27 C         137.2355  137.1027  166.9403 C.3     1  UNL1        0.0003
     28 C         137.4700  138.5023  167.4262 C.3     1  UNL1        0.0003
     29 C         138.4910  139.1390  166.5306 C.3     1  UNL1        0.0043
     30 C         138.4015  140.2445  163.4163 C.3     1  UNL1        0.4183
     31 F         137.1611  141.0857  163.4785 F       1  UNL1       -0.1659
     32 F         139.1394  141.2733  164.2207 F       1  UNL1       -0.1659
     33 F         137.6636  139.2158  162.6118 F       1  UNL1       -0.1659
@<TRIPOS>UNITY_ATOM_ATTR
15 1
charge -1
@<TRIPOS>BOND
     1    15    16   ar
     2    16    17   ar
     3    16    14    1
     4     2    14    1
     5     2     3    1
     6     3     4    1
     7     4     5    1
     8     5     6    2
     9     6     7    1
    10     7     8    2
    11     8     9    1
    12     9    10    1
    13    10    11    2
    14    11     1    1
    15     1    18    1
    16    18    19    1
    17    19    20   ar
    18    20    21   ar
    19    21    22   ar
    20    22    25    1
    21    25    26    1
    22    26    27    1
    23    27    28    1
    24    28    29    1
    25    22    23   ar
    26    23    30    1
    27    30    31    1
    28    30    32    1
    29    30    33    1
    30    23    24   ar
    31    11    12    1
    32    12    13    2
    33     6     2    1
    34    13     8    1
    35    13     5    1
    36    24    19   ar
    37    29    25    1
@<TRIPOS>MOLECULE
*****
 33 37 0 0 0
SMALL
GASTEIGER

@<TRIPOS>ATOM
      1 O         138.4676  144.9081  162.4222 O.2     1  UNL1       -0.4710
      2 C         143.4082  141.3053  157.7391 C.3     1  UNL1        0.0458
      3 C         142.1387  140.8421  157.0881 C.3     1  UNL1        0.0110
      4 C         140.9868  141.4322  157.8464 C.3     1  UNL1        0.0280
      5 C         141.5445  142.2601  158.9660 C.2     1  UNL1       -0.0074
      6 C         143.0410  142.1817  158.8997 C.2     1  UNL1        0.0547
      7 N         143.5986  143.0096  160.0193 N.2     1  UNL1       -0.2540
      8 C         142.4467  143.5998  160.7776 C.2     1  UNL1        0.0628
      9 C         142.3899  144.4991  161.9768 C.3     1  UNL1        0.0749
     10 C         141.0635  144.9351  162.5249 C.2     1  UNL1        0.0171
     11 C         139.7940  144.4719  161.8739 C.2     1  UNL1        0.1352
     12 C         139.8509  143.5726  160.6748 C.2     1  UNL1        0.0375
     13 C         141.1772  143.1366  160.1267 C.2     1  UNL1        0.0140
     14 C         144.8005  140.9538  157.3056 C.3     1  UNL1        0.0476
     15 O         146.4997  142.8228  157.9135 O.co2   1  UNL1       -0.5492
     16 C         145.7492  142.0353  156.8809 C.2     1  UNL1        0.0507
     17 O         145.9474  142.3293  155.4233 O.co2   1  UNL1       -0.5492
     18 C         137.7158  144.0161  163.3651 C.3     1  UNL1        0.2320
     19 C         138.4584  143.2196  164.3968 C.ar    1  UNL1        0.0211
     20 C         139.2929  143.9203  165.4276 C.ar    1  UNL1       -0.0010
     21 C         140.0354  143.1239  166.4592 C.ar    1  UNL1       -0.0045
     22 C         139.9435  141.6267  166.4600 C.ar    1  UNL1       -0.0186
     23 C         139.1090  140.9260  165.4292 C.ar    1  UNL1        0.0673
     24 C         138.3664  141.7224  164.3976 C.ar    1  UNL1        0.0028
     25 C         140.6860  140.8302  167.4917 C.3     1  UNL1        0.0223
     26 C         140.1626  140.4253  168.8378 C.3     1  UNL1        0.0043
     27 C         141.2354  139.6437  169.5365 C.3     1  UNL1        0.0003
     28 C         142.4219  139.5656  168.6221 C.3     1  UNL1        0.0003
     29 C         142.0824  140.2989  167.3584 C.3     1  UNL1        0.0043
     30 C         139.0170  139.4288  165.4301 C.3     1  UNL1        0.4183
     31 F         138.9250  137.9316  165.4309 F       1  UNL1       -0.1659
     32 F         140.2553  139.3523  164.5871 F       1  UNL1       -0.1659
     33 F         137.7786  139.5054  166.2731 F       1  UNL1       -0.1659
@<TRIPOS>UNITY_ATOM_ATTR
15 1
charge -1
@<TRIPOS>BOND
     1    15    16   ar
     2    16    17   ar
     3    16    14    1
     4     2    14    1
     5     2     3    1
     6     3     4    1
     7     4     5    1
     8     5     6    2
     9     6     7    1
    10     7     8    2
    11     8     9    1
    12     9    10    1
    13    10    11    2
    14    11     1    1
    15     1    18    1
    16    18    19    1
    17    19    20   ar
    18    20    21   ar
    19    21    22   ar
    20    22    25    1
    21    25    26    1
    22    26    27    1
    23    27    28    1
    24    28    29    1
    25    22    23   ar
    26    23    30    1
    27    30    31    1
    28    30    32    1
    29    30    33    1
    30    23    24   ar
    31    11    12    1
    32    12    13    2
    33     6     2    1
    34    13     8    1
    35    13     5    1
    36    24    19   ar
    37    29    25    1
@<TRIPOS>MOLECULE
*****
 33 37 0 0 0
SMALL
GASTEIGER

@<TRIPOS>ATOM
      1 O         138.4514  144.5079  162.1510 O.2     1  UNL1       -0.4710
      2 C         141.5101  138.6781  158.1537 C.3     1  UNL1        0.0458
      3 C         140.0816  138.2224  158.1141 C.3     1  UNL1        0.0110
      4 C         139.2528  139.2301  158.8541 C.3     1  UNL1        0.0280
      5 C         140.1693  140.3087  159.3511 C.2     1  UNL1       -0.0074
      6 C         141.5643  139.9675  158.9182 C.2     1  UNL1        0.0547
      7 N         142.4807  141.0460  159.4152 N.2     1  UNL1       -0.2540
      8 C         141.6520  142.0538  160.1553 C.2     1  UNL1        0.0628
      9 C         142.0137  143.3275  160.8601 C.3     1  UNL1        0.0749
     10 C         140.9468  144.1455  161.5253 C.2     1  UNL1        0.0171
     11 C         139.5183  143.6898  161.4857 C.2     1  UNL1        0.1352
     12 C         139.1566  142.4161  160.7809 C.2     1  UNL1        0.0375
     13 C         140.2235  141.5981  160.1157 C.2     1  UNL1        0.0140
     14 C         142.6792  137.9689  157.5370 C.3     1  UNL1        0.0476
     15 O         144.5840  137.9046  155.7713 O.co2   1  UNL1       -0.5492
     16 C         143.3197  138.5174  156.2964 C.2     1  UNL1        0.0507
     17 O         142.6958  139.6789  155.5810 O.co2   1  UNL1       -0.5492
     18 C         137.7241  143.9639  163.3447 C.3     1  UNL1        0.2320
     19 C         138.4680  143.1737  164.3802 C.ar    1  UNL1        0.0211
     20 C         139.3459  143.8768  165.3726 C.ar    1  UNL1       -0.0010
     21 C         140.0898  143.0866  166.4080 C.ar    1  UNL1       -0.0045
     22 C         139.9556  141.5933  166.4512 C.ar    1  UNL1       -0.0186
     23 C         139.0777  140.8901  165.4588 C.ar    1  UNL1        0.0673
     24 C         138.3339  141.6803  164.4234 C.ar    1  UNL1        0.0028
     25 C         140.6995  140.8030  167.4867 C.3     1  UNL1        0.0223
     26 C         142.0967  140.2730  167.3558 C.3     1  UNL1        0.0043
     27 C         142.4375  139.5465  168.6230 C.3     1  UNL1        0.0003
     28 C         141.2510  139.6276  169.5372 C.3     1  UNL1        0.0003
     29 C         140.1769  140.4041  168.8349 C.3     1  UNL1        0.0043
     30 C         138.9436  139.3967  165.5020 C.3     1  UNL1        0.4183
     31 F         138.8095  137.9034  165.5451 F       1  UNL1       -0.1659
     32 F         140.1797  139.2615  164.6632 F       1  UNL1       -0.1659
     33 F         137.7074  139.5320  166.3408 F       1  UNL1       -0.1659
@<TRIPOS>UNITY_ATOM_ATTR
15 1
charge -1
@<TRIPOS>BOND
     1    15    16   ar
     2    16    17   ar
     3    16    14    1
     4     2    14    1
     5     2     3    1
     6     3     4    1
     7     4     5    1
     8     5     6    2
     9     6     7    1
    10     7     8    2
    11     8     9    1
    12     9    10    1
    13    10    11    2
    14    11     1    1
    15     1    18    1
    16    18    19    1
    17    19    20   ar
    18    20    21   ar
    19    21    22   ar
    20    22    25    1
    21    25    26    1
    22    26    27    1
    23    27    28    1
    24    28    29    1
    25    22    23   ar
    26    23    30    1
    27    30    31    1
    28    30    32    1
    29    30    33    1
    30    23    24   ar
    31    11    12    1
    32    12    13    2
    33     6     2    1
    34    13     8    1
    35    13     5    1
    36    24    19   ar
    37    29    25    1
@<TRIPOS>MOLECULE
*****
 33 37 0 0 0
SMALL
GASTEIGER

@<TRIPOS>ATOM
      1 O         138.1420  137.6123  162.8345 O.2     1  UNL1       -0.4710
      2 C         140.0061  144.8697  161.0520 C.3     1  UNL1        0.0458
      3 C         139.2166  145.1631  162.2932 C.3     1  UNL1        0.0110
      4 C         138.7261  143.8593  162.8497 C.3     1  UNL1        0.0280
      5 C         139.2125  142.7601  161.9523 C.2     1  UNL1       -0.0074
      6 C         140.0036  143.3846  160.8414 C.2     1  UNL1        0.0547
      7 N         140.4899  142.2854  159.9440 N.2     1  UNL1       -0.2540
      8 C         139.9995  140.9815  160.5005 C.2     1  UNL1        0.0628
      9 C         140.1698  139.5651  160.0373 C.3     1  UNL1        0.0749
     10 C         139.5507  138.4420  160.8153 C.2     1  UNL1        0.0171
     11 C         138.7612  138.7355  162.0565 C.2     1  UNL1        0.1352
     12 C         138.5909  140.1519  162.5197 C.2     1  UNL1        0.0375
     13 C         139.2100  141.2750  161.7417 C.2     1  UNL1        0.0140
     14 C         140.6798  145.8834  160.1754 C.3     1  UNL1        0.0476
     15 O         142.4379  144.7838  158.6101 O.co2   1  UNL1       -0.5492
     16 C         141.1336  145.5003  158.7979 C.2     1  UNL1        0.0507
     17 O         140.2829  145.8336  157.6082 O.co2   1  UNL1       -0.5492
     18 C         138.8675  137.0236  164.0080 C.3     1  UNL1        0.2320
     19 C         139.6757  137.9079  164.9107 C.ar    1  UNL1        0.0211
     20 C         138.9885  138.7687  165.9290 C.ar    1  UNL1       -0.0010
     21 C         139.7967  139.6530  166.8316 C.ar    1  UNL1       -0.0045
     22 C         141.2921  139.6765  166.7160 C.ar    1  UNL1       -0.0186
     23 C         141.9792  138.8157  165.6978 C.ar    1  UNL1        0.0673
     24 C         141.1710  137.9315  164.7951 C.ar    1  UNL1        0.0028
     25 C         142.1003  140.5608  167.6188 C.3     1  UNL1        0.0223
     26 C         142.5853  140.2093  168.9940 C.3     1  UNL1        0.0043
     27 C         143.3501  141.3830  169.5300 C.3     1  UNL1        0.0003
     28 C         143.3378  142.4600  168.4859 C.3     1  UNL1        0.0003
     29 C         142.5654  141.9518  167.3047 C.3     1  UNL1        0.0043
     30 C         143.4746  138.8392  165.5822 C.3     1  UNL1        0.4183
     31 F         144.9700  138.8627  165.4666 F       1  UNL1       -0.1659
     32 F         143.5692  137.7221  166.5787 F       1  UNL1       -0.1659
     33 F         143.3800  139.9564  164.5857 F       1  UNL1       -0.1659
@<TRIPOS>UNITY_ATOM_ATTR
15 1
charge -1
@<TRIPOS>BOND
     1    15    16   ar
     2    16    17   ar
     3    16    14    1
     4     2    14    1
     5     2     3    1
     6     3     4    1
     7     4     5    1
     8     5     6    2
     9     6     7    1
    10     7     8    2
    11     8     9    1
    12     9    10    1
    13    10    11    2
    14    11     1    1
    15     1    18    1
    16    18    19    1
    17    19    20   ar
    18    20    21   ar
    19    21    22   ar
    20    22    25    1
    21    25    26    1
    22    26    27    1
    23    27    28    1
    24    28    29    1
    25    22    23   ar
    26    23    30    1
    27    30    31    1
    28    30    32    1
    29    30    33    1
    30    23    24   ar
    31    11    12    1
    32    12    13    2
    33     6     2    1
    34    13     8    1
    35    13     5    1
    36    24    19   ar
    37    29    25    1
@<TRIPOS>MOLECULE
*****
 33 37 0 0 0
SMALL
GASTEIGER

@<TRIPOS>ATOM
      1 O         138.7005  137.8588  164.5031 O.2     1  UNL1       -0.4710
      2 C         141.0421  139.3711  157.3231 C.3     1  UNL1        0.0458
      3 C         139.6258  139.8429  157.1771 C.3     1  UNL1        0.0110
      4 C         138.9333  139.6451  158.4930 C.3     1  UNL1        0.0280
      5 C         139.9217  139.0510  159.4522 C.2     1  UNL1       -0.0074
      6 C         141.2250  138.8816  158.7292 C.2     1  UNL1        0.0547
      7 N         142.2134  138.2876  159.6885 N.2     1  UNL1       -0.2540
      8 C         141.5210  138.0897  161.0043 C.2     1  UNL1        0.0628
      9 C         141.9971  137.5409  162.3165 C.3     1  UNL1        0.0749
     10 C         141.0570  137.4640  163.4828 C.2     1  UNL1        0.0171
     11 C         139.6406  137.9358  163.3367 C.2     1  UNL1        0.1352
     12 C         139.1644  138.4846  162.0245 C.2     1  UNL1        0.0375
     13 C         140.1046  138.5616  160.8583 C.2     1  UNL1        0.0140
     14 C         142.0914  139.3860  156.2513 C.3     1  UNL1        0.0476
     15 O         143.7076  137.3580  156.4094 O.co2   1  UNL1       -0.5492
     16 C         143.4569  138.8318  156.5309 C.2     1  UNL1        0.0507
     17 O         144.5719  139.7517  156.9321 O.co2   1  UNL1       -0.5492
     18 C         138.1309  139.1155  165.0915 C.3     1  UNL1        0.2320
     19 C         138.9363  139.9171  166.0709 C.ar    1  UNL1        0.0211
     20 C         139.7330  141.0970  165.5987 C.ar    1  UNL1       -0.0010
     21 C         140.5382  141.8985  166.5780 C.ar    1  UNL1       -0.0045
     22 C         140.5468  141.5202  168.0294 C.ar    1  UNL1       -0.0186
     23 C         139.7500  140.3402  168.5016 C.ar    1  UNL1        0.0673
     24 C         138.9448  139.5387  167.5223 C.ar    1  UNL1        0.0028
     25 C         141.3521  142.3218  169.0088 C.3     1  UNL1        0.0223
     26 C         140.8631  143.5014  169.7957 C.3     1  UNL1        0.0043
     27 C         141.9965  143.9932  170.6464 C.3     1  UNL1        0.0003
     28 C         143.1860  143.1174  170.3851 C.3     1  UNL1        0.0003
     29 C         142.7877  142.0844  169.3730 C.3     1  UNL1        0.0043
     30 C         139.7585  139.9619  169.9531 C.3     1  UNL1        0.4183
     31 F         139.7671  139.5835  171.4046 F       1  UNL1       -0.1659
     32 F         138.4749  140.7109  170.1559 F       1  UNL1       -0.1659
     33 F         141.0422  139.2129  169.7503 F       1  UNL1       -0.1659
@<TRIPOS>UNITY_ATOM_ATTR
15 1
charge -1
@<TRIPOS>BOND
     1    15    16   ar
     2    16    17   ar
     3    16    14    1
     4     2    14    1
     5     2     3    1
     6     3     4    1
     7     4     5    1
     8     5     6    2
     9     6     7    1
    10     7     8    2
    11     8     9    1
    12     9    10    1
    13    10    11    2
    14    11     1    1
    15     1    18    1
    16    18    19    1
    17    19    20   ar
    18    20    21   ar
    19    21    22   ar
    20    22    25    1
    21    25    26    1
    22    26    27    1
    23    27    28    1
    24    28    29    1
    25    22    23   ar
    26    23    30    1
    27    30    31    1
    28    30    32    1
    29    30    33    1
    30    23    24   ar
    31    11    12    1
    32    12    13    2
    33     6     2    1
    34    13     8    1
    35    13     5    1
    36    24    19   ar
    37    29    25    1
