@<TRIPOS>MOLECULE
*****
 28 31 0 0 0
SMALL
GASTEIGER

@<TRIPOS>ATOM
      1 C         137.3009  138.1051  167.2324 C.3     1  UNL1        0.0420
      2 C         138.2735  139.1450  166.7603 C.3     1  UNL1        0.1913
      3 O         138.3718  139.4719  165.2997 O.3     1  UNL1       -0.3500
      4 C         139.3443  140.5118  164.8277 C.3     1  UNL1        0.1145
      5 C         140.3169  141.5517  164.3557 C.3     1  UNL1        0.0463
      6 C         140.4151  141.8786  162.8951 C.3     1  UNL1        0.0746
      7 N         139.5409  141.1656  161.9065 N.3     1  UNL1       -0.2722
      8 C         138.5683  140.1258  162.3785 C.3     1  UNL1        0.0746
      9 C         138.4701  139.7989  163.8391 C.3     1  UNL1        0.0463
     10 C         140.2186  141.2248  165.8163 C.3     1  UNL1        0.1268
     11 N         140.1203  140.8978  167.2770 N.am    1  UNL1       -0.2377
     12 C         139.1478  139.8579  167.7490 C.2     1  UNL1        0.2577
     13 O         139.0495  139.5310  169.2096 O.2     1  UNL1       -0.2719
     14 C         140.9946  141.6107  168.2656 C.ar    1  UNL1        0.1652
     15 N         140.4617  142.7895  169.0247 N.ar    1  UNL1       -0.2265
     16 C         141.3359  143.5025  170.0133 C.ar    1  UNL1        0.1005
     17 C         142.7431  143.0366  170.2428 C.ar    1  UNL1        0.0231
     18 C         143.2761  141.8577  169.4837 C.ar    1  UNL1        0.0341
     19 C         142.4019  141.1448  168.4950 C.ar    1  UNL1        0.1719
     20 F         142.9348  139.9660  167.7359 F       1  UNL1       -0.2012
     21 C         139.6392  141.4926  160.4458 C.3     1  UNL1        0.0768
     22 C         140.7151  140.8676  159.6081 C.3     1  UNL1        0.0437
     23 C         141.7543  139.9966  160.2496 C.ar    1  UNL1       -0.0208
     24 C         143.0710  140.5823  160.6657 C.ar    1  UNL1       -0.0042
     25 C         144.1101  139.7113  161.3072 C.ar    1  UNL1       -0.0003
     26 C         143.8325  138.2546  161.5326 C.ar    1  UNL1       -0.0000
     27 C         142.5158  137.6688  161.1165 C.ar    1  UNL1       -0.0003
     28 C         141.4767  138.5398  160.4750 C.ar    1  UNL1       -0.0042
@<TRIPOS>BOND
     1     1     2    1
     2     2     3    1
     3     3     4    1
     4     4     5    1
     5     5     6    1
     6     6     7    1
     7     7    21    1
     8    21    22    1
     9    22    23    1
    10    23    24   ar
    11    24    25   ar
    12    25    26   ar
    13    26    27   ar
    14    27    28   ar
    15     7     8    1
    16     8     9    1
    17     4    10    1
    18    10    11    1
    19    11    14    1
    20    14    15   ar
    21    15    16   ar
    22    16    17   ar
    23    17    18   ar
    24    18    19   ar
    25    19    20    1
    26    11    12   am
    27    12    13    2
    28    12     2    1
    29     9     4    1
    30    19    14   ar
    31    28    23   ar
@<TRIPOS>MOLECULE
*****
 28 31 0 0 0
SMALL
GASTEIGER

@<TRIPOS>ATOM
      1 C         137.1316  137.9678  167.3413 C.3     1  UNL1        0.0420
      2 C         138.1747  138.9023  166.8038 C.3     1  UNL1        0.1913
      3 O         138.3600  139.0472  165.3224 O.3     1  UNL1       -0.3500
      4 C         139.4031  139.9817  164.7849 C.3     1  UNL1        0.1145
      5 C         140.4462  140.9161  164.2475 C.3     1  UNL1        0.0463
      6 C         140.6315  141.0611  162.7661 C.3     1  UNL1        0.0746
      7 N         139.7738  140.2717  161.8222 N.3     1  UNL1       -0.2722
      8 C         138.7307  139.3373  162.3596 C.3     1  UNL1        0.0746
      9 C         138.5454  139.1923  163.8410 C.3     1  UNL1        0.0463
     10 C         140.2608  140.7712  165.7289 C.3     1  UNL1        0.1268
     11 N         140.0755  140.6261  167.2104 N.am    1  UNL1       -0.2377
     12 C         139.0324  139.6917  167.7478 C.2     1  UNL1        0.2577
     13 O         138.8471  139.5467  169.2293 O.2     1  UNL1       -0.2719
     14 C         140.9332  141.4156  168.1544 C.ar    1  UNL1        0.1652
     15 N         140.3528  142.5815  168.8985 N.ar    1  UNL1       -0.2265
     16 C         141.2105  143.3709  169.8425 C.ar    1  UNL1        0.1005
     17 C         142.6486  142.9944  170.0423 C.ar    1  UNL1        0.0231
     18 C         143.2291  141.8285  169.2982 C.ar    1  UNL1        0.0341
     19 C         142.3714  141.0390  168.3543 C.ar    1  UNL1        0.1719
     20 F         142.9518  139.8731  167.6102 F       1  UNL1       -0.2012
     21 C         139.9591  140.4167  160.3407 C.3     1  UNL1        0.0768
     22 C         139.4067  139.3778  159.4104 C.3     1  UNL1        0.0437
     23 C         140.3360  138.5548  158.5682 C.ar    1  UNL1       -0.0208
     24 C         141.7712  138.3940  158.9733 C.ar    1  UNL1       -0.0042
     25 C         142.7005  137.5711  158.1311 C.ar    1  UNL1       -0.0003
     26 C         142.1944  136.9090  156.8839 C.ar    1  UNL1       -0.0000
     27 C         140.7591  137.0698  156.4788 C.ar    1  UNL1       -0.0003
     28 C         139.8299  137.8928  157.3210 C.ar    1  UNL1       -0.0042
@<TRIPOS>BOND
     1     1     2    1
     2     2     3    1
     3     3     4    1
     4     4     5    1
     5     5     6    1
     6     6     7    1
     7     7    21    1
     8    21    22    1
     9    22    23    1
    10    23    24   ar
    11    24    25   ar
    12    25    26   ar
    13    26    27   ar
    14    27    28   ar
    15     7     8    1
    16     8     9    1
    17     4    10    1
    18    10    11    1
    19    11    14    1
    20    14    15   ar
    21    15    16   ar
    22    16    17   ar
    23    17    18   ar
    24    18    19   ar
    25    19    20    1
    26    11    12   am
    27    12    13    2
    28    12     2    1
    29     9     4    1
    30    19    14   ar
    31    28    23   ar
@<TRIPOS>MOLECULE
*****
 28 31 0 0 0
SMALL
GASTEIGER

@<TRIPOS>ATOM
      1 C         137.4460  138.1388  167.0594 C.3     1  UNL1        0.0420
      2 C         138.2996  139.3032  166.6523 C.3     1  UNL1        0.1913
      3 O         138.2591  139.8052  165.2394 O.3     1  UNL1       -0.3500
      4 C         139.1127  140.9695  164.8324 C.3     1  UNL1        0.1145
      5 C         139.9664  142.1338  164.4254 C.3     1  UNL1        0.0463
      6 C         139.9258  142.6358  163.0125 C.3     1  UNL1        0.0746
      7 N         139.0316  141.9736  162.0066 N.3     1  UNL1       -0.2722
      8 C         138.1780  140.8093  162.4136 C.3     1  UNL1        0.0746
      9 C         138.2186  140.3073  163.8265 C.3     1  UNL1        0.0463
     10 C         140.0069  141.6318  165.8382 C.3     1  UNL1        0.1268
     11 N         140.0475  141.1298  167.2512 N.am    1  UNL1       -0.2377
     12 C         139.1938  139.9655  167.6582 C.2     1  UNL1        0.2577
     13 O         139.2344  139.4634  169.0711 O.2     1  UNL1       -0.2719
     14 C         140.9416  141.7921  168.2571 C.ar    1  UNL1        0.1652
     15 N         140.4081  142.8929  169.1250 N.ar    1  UNL1       -0.2265
     16 C         141.3022  143.5552  170.1309 C.ar    1  UNL1        0.1005
     17 C         142.7300  143.1166  170.2689 C.ar    1  UNL1        0.0231
     18 C         143.2637  142.0157  169.4009 C.ar    1  UNL1        0.0341
     19 C         142.3695  141.3534  168.3950 C.ar    1  UNL1        0.1719
     20 F         142.9030  140.2525  167.5271 F       1  UNL1       -0.2012
     21 C         138.9911  142.4756  160.5936 C.3     1  UNL1        0.0768
     22 C         140.0162  143.4622  160.1186 C.3     1  UNL1        0.0437
     23 C         139.8673  144.1097  158.7736 C.ar    1  UNL1       -0.0208
     24 C         140.3484  145.5142  158.5600 C.ar    1  UNL1       -0.0042
     25 C         140.1995  146.1616  157.2151 C.ar    1  UNL1       -0.0003
     26 C         139.5695  145.4043  156.0839 C.ar    1  UNL1       -0.0000
     27 C         139.0884  143.9998  156.2975 C.ar    1  UNL1       -0.0003
     28 C         139.2373  143.3524  157.6424 C.ar    1  UNL1       -0.0042
@<TRIPOS>BOND
     1     1     2    1
     2     2     3    1
     3     3     4    1
     4     4     5    1
     5     5     6    1
     6     6     7    1
     7     7    21    1
     8    21    22    1
     9    22    23    1
    10    23    24   ar
    11    24    25   ar
    12    25    26   ar
    13    26    27   ar
    14    27    28   ar
    15     7     8    1
    16     8     9    1
    17     4    10    1
    18    10    11    1
    19    11    14    1
    20    14    15   ar
    21    15    16   ar
    22    16    17   ar
    23    17    18   ar
    24    18    19   ar
    25    19    20    1
    26    11    12   am
    27    12    13    2
    28    12     2    1
    29     9     4    1
    30    19    14   ar
    31    28    23   ar
@<TRIPOS>MOLECULE
*****
 28 31 0 0 0
SMALL
GASTEIGER

@<TRIPOS>ATOM
      1 C         137.1637  138.0146  167.2560 C.3     1  UNL1        0.0420
      2 C         138.4505  138.6636  166.8403 C.3     1  UNL1        0.1913
      3 O         139.0125  138.4073  165.4734 O.3     1  UNL1       -0.3500
      4 C         140.2994  139.0564  165.0577 C.3     1  UNL1        0.1145
      5 C         141.5862  139.7055  164.6420 C.3     1  UNL1        0.0463
      6 C         142.1482  139.4491  163.2752 C.3     1  UNL1        0.0746
      7 N         141.4233  138.5437  162.3239 N.3     1  UNL1       -0.2722
      8 C         140.1365  137.8946  162.7396 C.3     1  UNL1        0.0746
      9 C         139.5746  138.1510  164.1064 C.3     1  UNL1        0.0463
     10 C         141.0242  139.9618  166.0089 C.3     1  UNL1        0.1268
     11 N         140.4621  140.2181  167.3759 N.am    1  UNL1       -0.2377
     12 C         139.1753  139.5691  167.7915 C.2     1  UNL1        0.2577
     13 O         138.6133  139.8254  169.1585 O.2     1  UNL1       -0.2719
     14 C         141.1869  141.1236  168.3271 C.ar    1  UNL1        0.1652
     15 N         140.5604  142.4172  168.7559 N.ar    1  UNL1       -0.2265
     16 C         141.2852  143.3226  169.7071 C.ar    1  UNL1        0.1005
     17 C         142.6366  142.9344  170.2296 C.ar    1  UNL1        0.0231
     18 C         143.2632  141.6407  169.8009 C.ar    1  UNL1        0.0341
     19 C         142.5384  140.7353  168.8496 C.ar    1  UNL1        0.1719
     20 F         143.1649  139.4416  168.4209 F       1  UNL1       -0.2012
     21 C         141.9854  138.2874  160.9570 C.3     1  UNL1        0.0768
     22 C         143.4048  138.6609  160.6475 C.3     1  UNL1        0.0437
     23 C         143.7054  139.9580  159.9567 C.ar    1  UNL1       -0.0208
     24 C         144.1047  141.1604  160.7596 C.ar    1  UNL1       -0.0042
     25 C         144.4053  142.4575  160.0687 C.ar    1  UNL1       -0.0003
     26 C         144.3067  142.5521  158.5750 C.ar    1  UNL1       -0.0000
     27 C         143.9074  141.3496  157.7721 C.ar    1  UNL1       -0.0003
     28 C         143.6068  140.0526  158.4629 C.ar    1  UNL1       -0.0042
@<TRIPOS>BOND
     1     1     2    1
     2     2     3    1
     3     3     4    1
     4     4     5    1
     5     5     6    1
     6     6     7    1
     7     7    21    1
     8    21    22    1
     9    22    23    1
    10    23    24   ar
    11    24    25   ar
    12    25    26   ar
    13    26    27   ar
    14    27    28   ar
    15     7     8    1
    16     8     9    1
    17     4    10    1
    18    10    11    1
    19    11    14    1
    20    14    15   ar
    21    15    16   ar
    22    16    17   ar
    23    17    18   ar
    24    18    19   ar
    25    19    20    1
    26    11    12   am
    27    12    13    2
    28    12     2    1
    29     9     4    1
    30    19    14   ar
    31    28    23   ar
@<TRIPOS>MOLECULE
*****
 28 31 0 0 0
SMALL
GASTEIGER

@<TRIPOS>ATOM
      1 C         137.0202  137.9378  167.3876 C.3     1  UNL1        0.0420
      2 C         138.2658  138.6103  166.8915 C.3     1  UNL1        0.1913
      3 O         138.7254  138.3910  165.4806 O.3     1  UNL1       -0.3500
      4 C         139.9711  139.0636  164.9844 C.3     1  UNL1        0.1145
      5 C         141.2167  139.7361  164.4884 C.3     1  UNL1        0.0463
      6 C         141.6762  139.5168  163.0774 C.3     1  UNL1        0.0746
      7 N         140.8901  138.6251  162.1626 N.3     1  UNL1       -0.2722
      8 C         139.6445  137.9526  162.6587 C.3     1  UNL1        0.0746
      9 C         139.1850  138.1718  164.0696 C.3     1  UNL1        0.0463
     10 C         140.7571  139.9553  165.8993 C.3     1  UNL1        0.1268
     11 N         140.2975  140.1745  167.3102 N.am    1  UNL1       -0.2377
     12 C         139.0519  139.5020  167.8063 C.2     1  UNL1        0.2577
     13 O         138.5923  139.7212  169.2173 O.2     1  UNL1       -0.2719
     14 C         141.0836  141.0662  168.2251 C.ar    1  UNL1        0.1652
     15 N         140.5064  142.3759  168.6742 N.ar    1  UNL1       -0.2265
     16 C         141.2925  143.2676  169.5890 C.ar    1  UNL1        0.1005
     17 C         142.6557  142.8497  170.0547 C.ar    1  UNL1        0.0231
     18 C         143.2329  141.5400  169.6056 C.ar    1  UNL1        0.0341
     19 C         142.4469  140.6483  168.6908 C.ar    1  UNL1        0.1719
     20 F         143.0240  139.3387  168.2417 F       1  UNL1       -0.2012
     21 C         141.3497  138.4059  160.7516 C.3     1  UNL1        0.0768
     22 C         141.0098  139.4074  159.6880 C.3     1  UNL1        0.0437
     23 C         140.4732  140.7549  160.0705 C.ar    1  UNL1       -0.0208
     24 C         141.4102  141.9128  160.2472 C.ar    1  UNL1       -0.0042
     25 C         140.8735  143.2602  160.6298 C.ar    1  UNL1       -0.0003
     26 C         139.3998  143.4498  160.8356 C.ar    1  UNL1       -0.0000
     27 C         138.4628  142.2919  160.6590 C.ar    1  UNL1       -0.0003
     28 C         138.9995  140.9445  160.2764 C.ar    1  UNL1       -0.0042
@<TRIPOS>BOND
     1     1     2    1
     2     2     3    1
     3     3     4    1
     4     4     5    1
     5     5     6    1
     6     6     7    1
     7     7    21    1
     8    21    22    1
     9    22    23    1
    10    23    24   ar
    11    24    25   ar
    12    25    26   ar
    13    26    27   ar
    14    27    28   ar
    15     7     8    1
    16     8     9    1
    17     4    10    1
    18    10    11    1
    19    11    14    1
    20    14    15   ar
    21    15    16   ar
    22    16    17   ar
    23    17    18   ar
    24    18    19   ar
    25    19    20    1
    26    11    12   am
    27    12    13    2
    28    12     2    1
    29     9     4    1
    30    19    14   ar
    31    28    23   ar
@<TRIPOS>MOLECULE
*****
 28 31 0 0 0
SMALL
GASTEIGER

@<TRIPOS>ATOM
      1 C         138.2159  140.6573  160.9092 C.3     1  UNL1        0.0420
      2 C         139.5922  140.1483  160.5982 C.3     1  UNL1        0.1913
      3 O         139.8121  139.2583  159.4109 O.3     1  UNL1       -0.3500
      4 C         141.1884  138.7493  159.0998 C.3     1  UNL1        0.1145
      5 C         142.5647  138.2403  158.7888 C.3     1  UNL1        0.0463
      6 C         142.7846  137.3503  157.6016 C.3     1  UNL1        0.0746
      7 N         141.6282  136.9694  156.7254 N.3     1  UNL1       -0.2722
      8 C         140.2520  137.4784  157.0364 C.3     1  UNL1        0.0746
      9 C         140.0321  138.3683  158.2236 C.3     1  UNL1        0.0463
     10 C         142.3448  139.1302  159.9760 C.3     1  UNL1        0.1268
     11 N         142.1248  140.0202  161.1633 N.am    1  UNL1       -0.2377
     12 C         140.7485  140.5292  161.4744 C.2     1  UNL1        0.2577
     13 O         140.5286  141.4192  162.6617 O.2     1  UNL1       -0.2719
     14 C         143.2811  140.4012  162.0395 C.ar    1  UNL1        0.1652
     15 N         143.9704  141.7186  161.8411 N.ar    1  UNL1       -0.2265
     16 C         145.1268  142.0995  162.7173 C.ar    1  UNL1        0.1005
     17 C         145.5938  141.1631  163.7919 C.ar    1  UNL1        0.0231
     18 C         144.9046  139.8457  163.9904 C.ar    1  UNL1        0.0341
     19 C         143.7482  139.4647  163.1142 C.ar    1  UNL1        0.1719
     20 F         143.0589  138.1474  163.3127 F       1  UNL1       -0.2012
     21 C         141.8482  136.0794  155.5381 C.3     1  UNL1        0.0768
     22 C         141.6023  134.6040  155.6509 C.3     1  UNL1        0.0437
     23 C         142.7278  133.6817  156.0153 C.ar    1  UNL1       -0.0208
     24 C         143.1255  132.5780  155.0808 C.ar    1  UNL1       -0.0042
     25 C         144.2510  131.6558  155.4453 C.ar    1  UNL1       -0.0003
     26 C         144.9787  131.8374  156.7443 C.ar    1  UNL1       -0.0000
     27 C         144.5810  132.9411  157.6788 C.ar    1  UNL1       -0.0003
     28 C         143.4555  133.8633  157.3144 C.ar    1  UNL1       -0.0042
@<TRIPOS>BOND
     1     1     2    1
     2     2     3    1
     3     3     4    1
     4     4     5    1
     5     5     6    1
     6     6     7    1
     7     7    21    1
     8    21    22    1
     9    22    23    1
    10    23    24   ar
    11    24    25   ar
    12    25    26   ar
    13    26    27   ar
    14    27    28   ar
    15     7     8    1
    16     8     9    1
    17     4    10    1
    18    10    11    1
    19    11    14    1
    20    14    15   ar
    21    15    16   ar
    22    16    17   ar
    23    17    18   ar
    24    18    19   ar
    25    19    20    1
    26    11    12   am
    27    12    13    2
    28    12     2    1
    29     9     4    1
    30    19    14   ar
    31    28    23   ar
@<TRIPOS>MOLECULE
*****
 28 31 0 0 0
SMALL
GASTEIGER

@<TRIPOS>ATOM
      1 C         137.3618  138.1767  167.1978 C.3     1  UNL1        0.0420
      2 C         138.2035  139.3379  166.7578 C.3     1  UNL1        0.1913
      3 O         138.0979  139.8508  165.3522 O.3     1  UNL1       -0.3500
      4 C         138.9395  141.0119  164.9123 C.3     1  UNL1        0.1145
      5 C         139.7812  142.1729  164.4724 C.3     1  UNL1        0.0463
      6 C         139.6755  142.6858  163.0668 C.3     1  UNL1        0.0746
      7 N         138.7282  142.0377  162.1011 N.3     1  UNL1       -0.2722
      8 C         137.8866  140.8766  162.5410 C.3     1  UNL1        0.0746
      9 C         137.9922  140.3637  163.9466 C.3     1  UNL1        0.0463
     10 C         139.8868  141.6600  165.8779 C.3     1  UNL1        0.1268
     11 N         139.9924  141.1471  167.2836 N.am    1  UNL1       -0.2377
     12 C         139.1508  139.9860  167.7235 C.2     1  UNL1        0.2577
     13 O         139.2564  139.4731  169.1292 O.2     1  UNL1       -0.2719
     14 C         140.9397  141.7952  168.2493 C.ar    1  UNL1        0.1652
     15 N         140.4550  142.8860  169.1577 N.ar    1  UNL1       -0.2265
     16 C         141.4022  143.5341  170.1234 C.ar    1  UNL1        0.1005
     17 C         142.8343  143.0915  170.1807 C.ar    1  UNL1        0.0231
     18 C         143.3191  142.0007  169.2722 C.ar    1  UNL1        0.0341
     19 C         142.3718  141.3526  168.3065 C.ar    1  UNL1        0.1719
     20 F         142.8566  140.2618  167.3981 F       1  UNL1       -0.2012
     21 C         138.6226  142.5506  160.6954 C.3     1  UNL1        0.0768
     22 C         139.6297  143.5347  160.1785 C.3     1  UNL1        0.0437
     23 C         140.9377  143.0497  159.6271 C.ar    1  UNL1       -0.0208
     24 C         140.9619  142.2007  158.3908 C.ar    1  UNL1       -0.0042
     25 C         142.2698  141.7157  157.8395 C.ar    1  UNL1       -0.0003
     26 C         143.5536  142.0797  158.5245 C.ar    1  UNL1       -0.0000
     27 C         143.5295  142.9287  159.7608 C.ar    1  UNL1       -0.0003
     28 C         142.2216  143.4136  160.3122 C.ar    1  UNL1       -0.0042
@<TRIPOS>BOND
     1     1     2    1
     2     2     3    1
     3     3     4    1
     4     4     5    1
     5     5     6    1
     6     6     7    1
     7     7    21    1
     8    21    22    1
     9    22    23    1
    10    23    24   ar
    11    24    25   ar
    12    25    26   ar
    13    26    27   ar
    14    27    28   ar
    15     7     8    1
    16     8     9    1
    17     4    10    1
    18    10    11    1
    19    11    14    1
    20    14    15   ar
    21    15    16   ar
    22    16    17   ar
    23    17    18   ar
    24    18    19   ar
    25    19    20    1
    26    11    12   am
    27    12    13    2
    28    12     2    1
    29     9     4    1
    30    19    14   ar
    31    28    23   ar
@<TRIPOS>MOLECULE
*****
 28 31 0 0 0
SMALL
GASTEIGER

@<TRIPOS>ATOM
      1 C         137.7280  138.0855  166.5171 C.3     1  UNL1        0.0420
      2 C         139.1162  138.6228  166.3313 C.3     1  UNL1        0.1913
      3 O         139.8869  138.2949  165.0869 O.3     1  UNL1       -0.3500
      4 C         141.2751  138.8322  164.9011 C.3     1  UNL1        0.1145
      5 C         142.6631  139.3695  164.7153 C.3     1  UNL1        0.0463
      6 C         143.4339  139.0417  163.4710 C.3     1  UNL1        0.0746
      7 N         142.8166  138.1766  162.4124 N.3     1  UNL1       -0.2722
      8 C         141.4285  137.6393  162.5982 C.3     1  UNL1        0.0746
      9 C         140.6578  137.9671  163.8425 C.3     1  UNL1        0.0463
     10 C         141.8924  139.6973  165.9597 C.3     1  UNL1        0.1268
     11 N         141.1215  140.0251  167.2041 N.am    1  UNL1       -0.2377
     12 C         139.7335  139.4878  167.3898 C.2     1  UNL1        0.2577
     13 O         138.9626  139.8156  168.6342 O.2     1  UNL1       -0.2719
     14 C         141.7388  140.8902  168.2626 C.ar    1  UNL1        0.1652
     15 N         142.8688  140.3637  169.0968 N.ar    1  UNL1       -0.2265
     16 C         143.4861  141.2288  170.1554 C.ar    1  UNL1        0.1005
     17 C         142.9734  142.6204  170.3797 C.ar    1  UNL1        0.0231
     18 C         141.8434  143.1471  169.5455 C.ar    1  UNL1        0.0341
     19 C         141.2261  142.2820  168.4870 C.ar    1  UNL1        0.1719
     20 F         140.0962  142.8086  167.6528 F       1  UNL1       -0.2012
     21 C         143.5874  137.8488  161.1680 C.3     1  UNL1        0.0768
     22 C         143.3944  138.6704  159.9280 C.3     1  UNL1        0.0437
     23 C         142.3165  138.3093  158.9493 C.ar    1  UNL1       -0.0208
     24 C         140.9329  138.8633  159.1193 C.ar    1  UNL1       -0.0042
     25 C         139.8551  138.5023  158.1406 C.ar    1  UNL1       -0.0003
     26 C         140.1607  137.5872  156.9921 C.ar    1  UNL1       -0.0000
     27 C         141.5442  137.0332  156.8221 C.ar    1  UNL1       -0.0003
     28 C         142.6221  137.3943  157.8007 C.ar    1  UNL1       -0.0042
@<TRIPOS>BOND
     1     1     2    1
     2     2     3    1
     3     3     4    1
     4     4     5    1
     5     5     6    1
     6     6     7    1
     7     7    21    1
     8    21    22    1
     9    22    23    1
    10    23    24   ar
    11    24    25   ar
    12    25    26   ar
    13    26    27   ar
    14    27    28   ar
    15     7     8    1
    16     8     9    1
    17     4    10    1
    18    10    11    1
    19    11    14    1
    20    14    15   ar
    21    15    16   ar
    22    16    17   ar
    23    17    18   ar
    24    18    19   ar
    25    19    20    1
    26    11    12   am
    27    12    13    2
    28    12     2    1
    29     9     4    1
    30    19    14   ar
    31    28    23   ar
@<TRIPOS>MOLECULE
*****
 28 31 0 0 0
SMALL
GASTEIGER

@<TRIPOS>ATOM
      1 C         144.4721  137.2299  166.9863 C.3     1  UNL1        0.0420
      2 C         143.6439  138.4258  166.6202 C.3     1  UNL1        0.1913
      3 O         143.5360  138.8530  165.1864 O.3     1  UNL1       -0.3500
      4 C         142.7078  140.0489  164.8204 C.3     1  UNL1        0.1145
      5 C         141.8796  141.2448  164.4544 C.3     1  UNL1        0.0463
      6 C         141.7717  141.6719  163.0206 C.3     1  UNL1        0.0746
      7 N         142.4920  140.9032  161.9528 N.3     1  UNL1       -0.2722
      8 C         143.3202  139.7074  162.3187 C.3     1  UNL1        0.0746
      9 C         143.4281  139.2802  163.7525 C.3     1  UNL1        0.0463
     10 C         141.9875  140.8176  165.8882 C.3     1  UNL1        0.1268
     11 N         142.0954  140.3904  167.3221 N.am    1  UNL1       -0.2377
     12 C         142.9236  139.1945  167.6881 C.2     1  UNL1        0.2577
     13 O         143.0315  138.7673  169.1219 O.2     1  UNL1       -0.2719
     14 C         141.3751  141.1591  168.3899 C.ar    1  UNL1        0.1652
     15 N         140.0388  140.6875  168.8815 N.ar    1  UNL1       -0.2265
     16 C         139.3185  141.4562  169.9494 C.ar    1  UNL1        0.1005
     17 C         139.9345  142.6965  170.5256 C.ar    1  UNL1        0.0231
     18 C         141.2709  143.1682  170.0340 C.ar    1  UNL1        0.0341
     19 C         141.9912  142.3995  168.9662 C.ar    1  UNL1        0.1719
     20 F         143.3276  142.8711  168.4745 F       1  UNL1       -0.2012
     21 C         142.3841  141.3304  160.5189 C.3     1  UNL1        0.0768
     22 C         141.1956  140.9195  159.7013 C.3     1  UNL1        0.0437
     23 C         140.0517  140.1982  160.3506 C.ar    1  UNL1       -0.0208
     24 C         138.8438  140.9627  160.8046 C.ar    1  UNL1       -0.0042
     25 C         137.7000  140.2414  161.4538 C.ar    1  UNL1       -0.0003
     26 C         137.7643  138.7555  161.6490 C.ar    1  UNL1       -0.0000
     27 C         138.9722  137.9910  161.1949 C.ar    1  UNL1       -0.0003
     28 C         140.1160  138.7123  160.5457 C.ar    1  UNL1       -0.0042
@<TRIPOS>BOND
     1     1     2    1
     2     2     3    1
     3     3     4    1
     4     4     5    1
     5     5     6    1
     6     6     7    1
     7     7    21    1
     8    21    22    1
     9    22    23    1
    10    23    24   ar
    11    24    25   ar
    12    25    26   ar
    13    26    27   ar
    14    27    28   ar
    15     7     8    1
    16     8     9    1
    17     4    10    1
    18    10    11    1
    19    11    14    1
    20    14    15   ar
    21    15    16   ar
    22    16    17   ar
    23    17    18   ar
    24    18    19   ar
    25    19    20    1
    26    11    12   am
    27    12    13    2
    28    12     2    1
    29     9     4    1
    30    19    14   ar
    31    28    23   ar
