@<TRIPOS>MOLECULE
*****
 26 28 0 0 0
SMALL
GASTEIGER

@<TRIPOS>ATOM
      1 C         141.0611  139.6940  166.4261 C.ar    1  UNL1       -0.0076
      2 C         142.3510  138.9309  166.4867 C.ar    1  UNL1        0.0001
      3 C         142.9579  138.3829  165.2292 C.ar    1  UNL1        0.0366
      4 C         142.2748  138.5979  163.9111 C.ar    1  UNL1        0.1390
      5 C         140.9849  139.3611  163.8506 C.ar    1  UNL1        0.0366
      6 C         140.3780  139.9091  165.1081 C.ar    1  UNL1        0.0001
      7 C         142.1761  142.2337  168.1455 C.3     1  UNL1        0.0902
      8 N         140.9667  141.4094  168.4740 N.3     1  UNL1       -0.2629
      9 C         140.4541  140.2420  167.6837 C.3     1  UNL1        0.0805
     10 C         139.2282  139.7189  168.3717 C.3     1  UNL1        0.0224
     11 C         138.9830  140.5630  169.5871 C.3     1  UNL1        0.0271
     12 C         140.0575  141.6078  169.6504 C.3     1  UNL1        0.1348
     13 C         140.1980  142.6653  170.7049 C.2     1  UNL1        0.2339
     14 N         140.0414  144.1122  170.3416 N.am    1  UNL1       -0.3277
     15 O         140.4952  142.2759  172.1226 O.2     1  UNL1       -0.2739
     16 H         139.8463  144.3678  169.4111 H       1  UNL1        0.1450
     17 H         140.1336  144.8063  171.0337 H       1  UNL1        0.1450
     18 O         142.8818  138.0499  162.6536 O.3     1  UNL1       -0.4706
     19 C         144.0764  138.7208  162.0431 C.3     1  UNL1        0.2342
     20 C         144.2481  140.2058  162.1683 C.ar    1  UNL1        0.0486
     21 C         143.6199  141.1210  161.1596 C.ar    1  UNL1        0.0016
     22 C         143.7916  142.6059  161.2847 C.ar    1  UNL1       -0.0001
     23 C         144.5915  143.1754  162.4186 C.ar    1  UNL1        0.0023
     24 C         145.2197  142.2601  163.4274 C.ar    1  UNL1        0.0294
     25 C         145.0480  140.7753  163.3022 C.ar    1  UNL1        0.1396
     26 F         145.6762  139.8599  164.3109 F       1  UNL1       -0.2044
@<TRIPOS>BOND
     1     7     8    1
     2     8     9    1
     3     9     1    1
     4     1     2   ar
     5     2     3   ar
     6     3     4   ar
     7     4    18    1
     8    18    19    1
     9    19    20    1
    10    20    21   ar
    11    21    22   ar
    12    22    23   ar
    13    23    24   ar
    14    24    25   ar
    15    25    26    1
    16     4     5   ar
    17     5     6   ar
    18     9    10    1
    19    10    11    1
    20    11    12    1
    21    12    13    1
    22    13    14   am
    23    13    15    2
    24    12     8    1
    25     6     1   ar
    26    25    20   ar
    27    14    16    1
    28    14    17    1
@<TRIPOS>MOLECULE
*****
 26 28 0 0 0
SMALL
GASTEIGER

@<TRIPOS>ATOM
      1 C         142.7432  140.7599  166.3994 C.ar    1  UNL1       -0.0076
      2 C         142.5377  141.5490  165.1404 C.ar    1  UNL1        0.0001
      3 C         142.8106  140.9184  163.8071 C.ar    1  UNL1        0.0366
      4 C         143.2890  139.4987  163.7328 C.ar    1  UNL1        0.1390
      5 C         143.4945  138.7096  164.9918 C.ar    1  UNL1        0.0366
      6 C         143.2216  139.3402  166.3251 C.ar    1  UNL1        0.0001
      7 C         140.1266  140.2250  168.2748 C.3     1  UNL1        0.0902
      8 N         141.2676  141.1447  168.5948 N.3     1  UNL1       -0.2629
      9 C         142.4703  141.3906  167.7328 C.3     1  UNL1        0.0805
     10 C         143.3522  142.3778  168.4383 C.3     1  UNL1        0.0224
     11 C         142.6945  142.7420  169.7363 C.3     1  UNL1        0.0271
     12 C         141.4061  141.9799  169.8331 C.3     1  UNL1        0.1348
     13 C         140.4281  142.0421  170.9686 C.2     1  UNL1        0.2339
     14 N         139.4601  143.1841  171.0631 N.am    1  UNL1       -0.3277
     15 O         140.4180  140.9623  172.0097 O.2     1  UNL1       -0.2739
     16 H         139.4668  143.8928  170.3797 H       1  UNL1        0.1450
     17 H         138.8182  143.2249  171.8084 H       1  UNL1        0.1450
     18 O         143.5619  138.8680  162.3994 O.3     1  UNL1       -0.4706
     19 C         142.6496  137.7994  161.8744 C.3     1  UNL1        0.2342
     20 C         141.1623  137.9733  161.9619 C.ar    1  UNL1        0.0486
     21 C         140.4313  138.7292  160.8923 C.ar    1  UNL1        0.0016
     22 C         138.9440  138.9031  160.9799 C.ar    1  UNL1       -0.0001
     23 C         138.1877  138.3211  162.1371 C.ar    1  UNL1        0.0023
     24 C         138.9187  137.5652  163.2068 C.ar    1  UNL1        0.0294
     25 C         140.4060  137.3913  163.1192 C.ar    1  UNL1        0.1396
     26 F         141.1370  136.6353  164.1889 F       1  UNL1       -0.2044
@<TRIPOS>BOND
     1     7     8    1
     2     8     9    1
     3     9     1    1
     4     1     2   ar
     5     2     3   ar
     6     3     4   ar
     7     4    18    1
     8    18    19    1
     9    19    20    1
    10    20    21   ar
    11    21    22   ar
    12    22    23   ar
    13    23    24   ar
    14    24    25   ar
    15    25    26    1
    16     4     5   ar
    17     5     6   ar
    18     9    10    1
    19    10    11    1
    20    11    12    1
    21    12    13    1
    22    13    14   am
    23    13    15    2
    24    12     8    1
    25     6     1   ar
    26    25    20   ar
    27    14    16    1
    28    14    17    1
@<TRIPOS>MOLECULE
*****
 26 28 0 0 0
SMALL
GASTEIGER

@<TRIPOS>ATOM
      1 C         142.5983  141.1849  166.1864 C.ar    1  UNL1       -0.0076
      2 C         142.1272  140.5048  164.9352 C.ar    1  UNL1        0.0001
      3 C         142.4280  141.1078  163.5951 C.ar    1  UNL1        0.0366
      4 C         143.1999  142.3908  163.5062 C.ar    1  UNL1        0.1390
      5 C         143.6710  143.0710  164.7573 C.ar    1  UNL1        0.0366
      6 C         143.3702  142.4680  166.0974 C.ar    1  UNL1        0.0001
      7 C         140.5220  142.3773  168.4038 C.3     1  UNL1        0.0902
      8 N         141.3431  141.1301  168.5458 N.3     1  UNL1       -0.2629
      9 C         142.2975  140.5820  167.5266 C.3     1  UNL1        0.0805
     10 C         142.8983  139.3252  168.0828 C.3     1  UNL1        0.0224
     11 C         142.3152  139.0965  169.4458 C.3     1  UNL1        0.0271
     12 C         141.3540  140.2120  169.7320 C.3     1  UNL1        0.1348
     13 C         140.5458  140.3800  170.9843 C.2     1  UNL1        0.2339
     14 N         139.5722  139.3160  171.3970 N.am    1  UNL1       -0.3277
     15 O         140.7110  141.6118  171.8241 O.2     1  UNL1       -0.2739
     16 H         139.4637  138.5075  170.8458 H       1  UNL1        0.1450
     17 H         139.0417  139.4263  172.2190 H       1  UNL1        0.1450
     18 O         143.5006  142.9938  162.1660 O.3     1  UNL1       -0.4706
     19 C         142.5422  143.9697  161.5504 C.3     1  UNL1        0.2342
     20 C         141.1254  144.0388  162.0384 C.ar    1  UNL1        0.0486
     21 C         140.0625  143.2146  161.3744 C.ar    1  UNL1        0.0016
     22 C         138.6458  143.2837  161.8624 C.ar    1  UNL1       -0.0001
     23 C         138.2920  144.1770  163.0143 C.ar    1  UNL1        0.0023
     24 C         139.3549  145.0011  163.6783 C.ar    1  UNL1        0.0294
     25 C         140.7716  144.9320  163.1903 C.ar    1  UNL1        0.1396
     26 F         141.8347  145.7562  163.8543 F       1  UNL1       -0.2044
@<TRIPOS>BOND
     1     7     8    1
     2     8     9    1
     3     9     1    1
     4     1     2   ar
     5     2     3   ar
     6     3     4   ar
     7     4    18    1
     8    18    19    1
     9    19    20    1
    10    20    21   ar
    11    21    22   ar
    12    22    23   ar
    13    23    24   ar
    14    24    25   ar
    15    25    26    1
    16     4     5   ar
    17     5     6   ar
    18     9    10    1
    19    10    11    1
    20    11    12    1
    21    12    13    1
    22    13    14   am
    23    13    15    2
    24    12     8    1
    25     6     1   ar
    26    25    20   ar
    27    14    16    1
    28    14    17    1
@<TRIPOS>MOLECULE
*****
 26 28 0 0 0
SMALL
GASTEIGER

@<TRIPOS>ATOM
      1 C         139.5215  139.8969  166.2448 C.ar    1  UNL1       -0.0076
      2 C         138.4835  140.3810  165.2763 C.ar    1  UNL1        0.0001
      3 C         138.3162  139.6965  163.9521 C.ar    1  UNL1        0.0366
      4 C         139.1869  138.5280  163.5965 C.ar    1  UNL1        0.1390
      5 C         140.2249  138.0440  164.5651 C.ar    1  UNL1        0.0366
      6 C         140.3922  138.7284  165.8893 C.ar    1  UNL1        0.0001
      7 C         141.0261  142.7476  166.7541 C.3     1  UNL1        0.0902
      8 N         140.3804  141.8917  167.8031 N.3     1  UNL1       -0.2629
      9 C         139.6888  140.5814  167.5691 C.3     1  UNL1        0.0805
     10 C         139.1939  140.0758  168.8917 C.3     1  UNL1        0.0224
     11 C         139.5797  141.0735  169.9432 C.3     1  UNL1        0.0271
     12 C         140.3130  142.1959  169.2704 C.3     1  UNL1        0.1348
     13 C         140.8794  143.4093  169.9463 C.2     1  UNL1        0.2339
     14 N         140.0235  144.6250  170.1456 N.am    1  UNL1       -0.3277
     15 O         142.3017  143.4071  170.4227 O.2     1  UNL1       -0.2739
     16 H         139.0900  144.6264  169.8328 H       1  UNL1        0.1450
     17 H         140.3952  145.4214  170.5892 H       1  UNL1        0.1450
     18 O         139.0196  137.8435  162.2722 O.3     1  UNL1       -0.4706
     19 C         139.8688  138.2509  161.1048 C.3     1  UNL1        0.2342
     20 C         141.2778  138.7147  161.3279 C.ar    1  UNL1        0.0486
     21 C         142.4115  137.7361  161.2441 C.ar    1  UNL1        0.0016
     22 C         143.8205  138.1999  161.4671 C.ar    1  UNL1       -0.0001
     23 C         144.0957  139.6422  161.7739 C.ar    1  UNL1        0.0023
     24 C         142.9619  140.6207  161.8577 C.ar    1  UNL1        0.0294
     25 C         141.5530  140.1569  161.6346 C.ar    1  UNL1        0.1396
     26 F         140.4191  141.1355  161.7184 F       1  UNL1       -0.2044
@<TRIPOS>BOND
     1     7     8    1
     2     8     9    1
     3     9     1    1
     4     1     2   ar
     5     2     3   ar
     6     3     4   ar
     7     4    18    1
     8    18    19    1
     9    19    20    1
    10    20    21   ar
    11    21    22   ar
    12    22    23   ar
    13    23    24   ar
    14    24    25   ar
    15    25    26    1
    16     4     5   ar
    17     5     6   ar
    18     9    10    1
    19    10    11    1
    20    11    12    1
    21    12    13    1
    22    13    14   am
    23    13    15    2
    24    12     8    1
    25     6     1   ar
    26    25    20   ar
    27    14    16    1
    28    14    17    1
@<TRIPOS>MOLECULE
*****
 26 28 0 0 0
SMALL
GASTEIGER

@<TRIPOS>ATOM
      1 C         141.5944  142.6490  166.6822 C.ar    1  UNL1       -0.0076
      2 C         143.0798  142.4628  166.5882 C.ar    1  UNL1        0.0001
      3 C         143.7947  142.7710  165.3061 C.ar    1  UNL1        0.0366
      4 C         143.0242  143.2655  164.1179 C.ar    1  UNL1        0.1390
      5 C         141.5388  143.4518  164.2118 C.ar    1  UNL1        0.0366
      6 C         140.8239  143.1435  165.4940 C.ar    1  UNL1        0.0001
      7 C         140.3999  139.7422  167.5614 C.3     1  UNL1        0.0902
      8 N         140.3304  141.0047  168.3685 N.3     1  UNL1       -0.2629
      9 C         140.8794  142.3408  167.9643 C.3     1  UNL1        0.0805
     10 C         140.5879  143.3146  169.0674 C.3     1  UNL1        0.0224
     11 C         139.8588  142.5803  170.1533 C.3     1  UNL1        0.0271
     12 C         139.6996  141.1526  169.7213 C.3     1  UNL1        0.1348
     13 C         139.0276  140.0641  170.5046 C.2     1  UNL1        0.2339
     14 N         139.8189  139.2442  171.4802 N.am    1  UNL1       -0.3277
     15 O         137.5645  139.7956  170.3124 O.2     1  UNL1       -0.2739
     16 H         140.7792  139.4205  171.6064 H       1  UNL1        0.1450
     17 H         139.3778  138.5298  171.9943 H       1  UNL1        0.1450
     18 O         143.7392  143.5737  162.8358 O.3     1  UNL1       -0.4706
     19 C         144.7767  142.6270  162.3093 C.3     1  UNL1        0.2342
     20 C         144.3610  141.3158  161.7109 C.ar    1  UNL1        0.0486
     21 C         143.8507  141.2629  160.3014 C.ar    1  UNL1        0.0016
     22 C         143.4350  139.9518  159.7030 C.ar    1  UNL1       -0.0001
     23 C         143.5297  138.6936  160.5141 C.ar    1  UNL1        0.0023
     24 C         144.0399  138.7465  161.9236 C.ar    1  UNL1        0.0294
     25 C         144.4556  140.0576  162.5220 C.ar    1  UNL1        0.1396
     26 F         144.9660  140.1106  163.9316 F       1  UNL1       -0.2044
@<TRIPOS>BOND
     1     7     8    1
     2     8     9    1
     3     9     1    1
     4     1     2   ar
     5     2     3   ar
     6     3     4   ar
     7     4    18    1
     8    18    19    1
     9    19    20    1
    10    20    21   ar
    11    21    22   ar
    12    22    23   ar
    13    23    24   ar
    14    24    25   ar
    15    25    26    1
    16     4     5   ar
    17     5     6   ar
    18     9    10    1
    19    10    11    1
    20    11    12    1
    21    12    13    1
    22    13    14   am
    23    13    15    2
    24    12     8    1
    25     6     1   ar
    26    25    20   ar
    27    14    16    1
    28    14    17    1
@<TRIPOS>MOLECULE
*****
 26 28 0 0 0
SMALL
GASTEIGER

@<TRIPOS>ATOM
      1 C         140.5099  140.1277  166.3804 C.ar    1  UNL1       -0.0076
      2 C         141.1933  140.1098  165.0453 C.ar    1  UNL1        0.0001
      3 C         140.3932  139.8883  163.7961 C.ar    1  UNL1        0.0366
      4 C         138.9096  139.6847  163.8819 C.ar    1  UNL1        0.1390
      5 C         138.2261  139.7025  165.2170 C.ar    1  UNL1        0.0366
      6 C         139.0262  139.9241  166.4662 C.ar    1  UNL1        0.0001
      7 C         140.4615  142.8097  168.2389 C.3     1  UNL1        0.0902
      8 N         141.2878  141.5820  168.4840 N.3     1  UNL1       -0.2629
      9 C         141.3100  140.3492  167.6297 C.3     1  UNL1        0.0805
     10 C         142.2729  139.3769  168.2441 C.3     1  UNL1        0.0224
     11 C         142.8457  140.0088  169.4780 C.3     1  UNL1        0.0271
     12 C         142.2369  141.3716  169.6263 C.3     1  UNL1        0.1348
     13 C         142.5263  142.3519  170.7241 C.2     1  UNL1        0.2339
     14 N         143.6905  143.2902  170.6042 N.am    1  UNL1       -0.3277
     15 O         141.6515  142.3939  171.9419 O.2     1  UNL1       -0.2739
     16 H         144.2646  143.2626  169.8049 H       1  UNL1        0.1450
     17 H         143.8804  143.9336  171.3247 H       1  UNL1        0.1450
     18 O         138.1094  139.4631  162.6326 O.3     1  UNL1       -0.4706
     19 C         137.7017  140.6322  161.7859 C.3     1  UNL1        0.2342
     20 C         138.1233  142.0197  162.1699 C.ar    1  UNL1        0.0486
     21 C         137.4197  142.7359  163.2843 C.ar    1  UNL1        0.0016
     22 C         137.8412  144.1232  163.6683 C.ar    1  UNL1       -0.0001
     23 C         138.9664  144.7944  162.9378 C.ar    1  UNL1        0.0023
     24 C         139.6700  144.0782  161.8234 C.ar    1  UNL1        0.0294
     25 C         139.2484  142.6908  161.4395 C.ar    1  UNL1        0.1396
     26 F         139.9520  141.9745  160.3250 F       1  UNL1       -0.2044
@<TRIPOS>BOND
     1     7     8    1
     2     8     9    1
     3     9     1    1
     4     1     2   ar
     5     2     3   ar
     6     3     4   ar
     7     4    18    1
     8    18    19    1
     9    19    20    1
    10    20    21   ar
    11    21    22   ar
    12    22    23   ar
    13    23    24   ar
    14    24    25   ar
    15    25    26    1
    16     4     5   ar
    17     5     6   ar
    18     9    10    1
    19    10    11    1
    20    11    12    1
    21    12    13    1
    22    13    14   am
    23    13    15    2
    24    12     8    1
    25     6     1   ar
    26    25    20   ar
    27    14    16    1
    28    14    17    1
@<TRIPOS>MOLECULE
*****
 26 28 0 0 0
SMALL
GASTEIGER

@<TRIPOS>ATOM
      1 C         139.9646  139.7066  166.3628 C.ar    1  UNL1       -0.0076
      2 C         141.2302  139.0736  165.8653 C.ar    1  UNL1        0.0001
      3 C         141.2296  138.3101  164.5742 C.ar    1  UNL1        0.0366
      4 C         139.9635  138.1796  163.7806 C.ar    1  UNL1        0.1390
      5 C         138.6979  138.8126  164.2781 C.ar    1  UNL1        0.0366
      6 C         138.6984  139.5761  165.5692 C.ar    1  UNL1        0.0001
      7 C         141.4625  142.5545  166.9066 C.3     1  UNL1        0.0902
      8 N         140.6536  141.7792  167.9039 N.3     1  UNL1       -0.2629
      9 C         139.9651  140.4702  167.6540 C.3     1  UNL1        0.0805
     10 C         139.2771  140.0588  168.9218 C.3     1  UNL1        0.0224
     11 C         139.5405  141.1136  169.9553 C.3     1  UNL1        0.0271
     12 C         140.3912  142.1769  169.3262 C.3     1  UNL1        0.1348
     13 C         140.8917  143.4196  170.0009 C.2     1  UNL1        0.2339
     14 N         139.9908  144.6105  170.1431 N.am    1  UNL1       -0.3277
     15 O         142.2930  143.4713  170.5335 O.2     1  UNL1       -0.2739
     16 H         139.0711  144.5765  169.7935 H       1  UNL1        0.1450
     17 H         140.3192  145.4261  170.5859 H       1  UNL1        0.1450
     18 O         139.9630  137.4160  162.4894 O.3     1  UNL1       -0.4706
     19 C         140.1711  138.1378  161.1912 C.3     1  UNL1        0.2342
     20 C         141.3370  139.0675  161.0284 C.ar    1  UNL1        0.0486
     21 C         141.1498  140.5445  161.2109 C.ar    1  UNL1        0.0016
     22 C         142.3157  141.4740  161.0482 C.ar    1  UNL1       -0.0001
     23 C         143.6688  140.9266  160.7028 C.ar    1  UNL1        0.0023
     24 C         143.8561  139.4496  160.5202 C.ar    1  UNL1        0.0294
     25 C         142.6902  138.5201  160.6830 C.ar    1  UNL1        0.1396
     26 F         142.8774  137.0430  160.5004 F       1  UNL1       -0.2044
@<TRIPOS>BOND
     1     7     8    1
     2     8     9    1
     3     9     1    1
     4     1     2   ar
     5     2     3   ar
     6     3     4   ar
     7     4    18    1
     8    18    19    1
     9    19    20    1
    10    20    21   ar
    11    21    22   ar
    12    22    23   ar
    13    23    24   ar
    14    24    25   ar
    15    25    26    1
    16     4     5   ar
    17     5     6   ar
    18     9    10    1
    19    10    11    1
    20    11    12    1
    21    12    13    1
    22    13    14   am
    23    13    15    2
    24    12     8    1
    25     6     1   ar
    26    25    20   ar
    27    14    16    1
    28    14    17    1
@<TRIPOS>MOLECULE
*****
 26 28 0 0 0
SMALL
GASTEIGER

@<TRIPOS>ATOM
      1 C         139.8975  139.7154  166.4106 C.ar    1  UNL1       -0.0076
      2 C         141.1582  139.1008  165.8787 C.ar    1  UNL1        0.0001
      3 C         141.1310  138.3259  164.5947 C.ar    1  UNL1        0.0366
      4 C         139.8432  138.1656  163.8425 C.ar    1  UNL1        0.1390
      5 C         138.5825  138.7802  164.3744 C.ar    1  UNL1        0.0366
      6 C         138.6097  139.5551  165.6584 C.ar    1  UNL1        0.0001
      7 C         141.4490  142.5422  166.9126 C.3     1  UNL1        0.0902
      8 N         140.6378  141.7897  167.9254 N.3     1  UNL1       -0.2629
      9 C         139.9246  140.4904  167.6946 C.3     1  UNL1        0.0805
     10 C         139.2434  140.1021  168.9733 C.3     1  UNL1        0.0224
     11 C         139.5355  141.1614  169.9944 C.3     1  UNL1        0.0271
     12 C         140.3973  142.2045  169.3467 C.3     1  UNL1        0.1348
     13 C         140.9258  143.4445  170.0047 C.2     1  UNL1        0.2339
     14 N         142.3272  143.4709  170.5391 N.am    1  UNL1       -0.3277
     15 O         140.0529  144.6581  170.1284 O.2     1  UNL1       -0.2739
     16 H         142.9000  142.6744  170.4580 H       1  UNL1        0.1450
     17 H         142.6740  144.2848  170.9710 H       1  UNL1        0.1450
     18 O         139.8160  137.3906  162.5585 O.3     1  UNL1       -0.4706
     19 C         139.4305  138.0722  161.2791 C.3     1  UNL1        0.2342
     20 C         139.8069  139.5062  161.0503 C.ar    1  UNL1        0.0486
     21 C         141.2393  139.8749  160.8006 C.ar    1  UNL1        0.0016
     22 C         141.6156  141.3088  160.5717 C.ar    1  UNL1       -0.0001
     23 C         140.5596  142.3739  160.5926 C.ar    1  UNL1        0.0023
     24 C         139.1272  142.0051  160.8423 C.ar    1  UNL1        0.0294
     25 C         138.7509  140.5712  161.0711 C.ar    1  UNL1        0.1396
     26 F         137.3185  140.2024  161.3208 F       1  UNL1       -0.2044
@<TRIPOS>BOND
     1     7     8    1
     2     8     9    1
     3     9     1    1
     4     1     2   ar
     5     2     3   ar
     6     3     4   ar
     7     4    18    1
     8    18    19    1
     9    19    20    1
    10    20    21   ar
    11    21    22   ar
    12    22    23   ar
    13    23    24   ar
    14    24    25   ar
    15    25    26    1
    16     4     5   ar
    17     5     6   ar
    18     9    10    1
    19    10    11    1
    20    11    12    1
    21    12    13    1
    22    13    14   am
    23    13    15    2
    24    12     8    1
    25     6     1   ar
    26    25    20   ar
    27    14    16    1
    28    14    17    1
@<TRIPOS>MOLECULE
*****
 26 28 0 0 0
SMALL
GASTEIGER

@<TRIPOS>ATOM
      1 C         142.8020  141.0335  166.2652 C.ar    1  UNL1       -0.0076
      2 C         143.2800  139.6782  165.8357 C.ar    1  UNL1        0.0001
      3 C         143.5034  139.3880  164.3811 C.ar    1  UNL1        0.0366
      4 C         143.2488  140.4531  163.3561 C.ar    1  UNL1        0.1390
      5 C         142.7708  141.8084  163.7856 C.ar    1  UNL1        0.0366
      6 C         142.5474  142.0986  165.2402 C.ar    1  UNL1        0.0001
      7 C         140.3070  139.9602  168.0742 C.3     1  UNL1        0.0902
      8 N         141.4317  140.8304  168.5514 N.3     1  UNL1       -0.2629
      9 C         142.5786  141.3238  167.7199 C.3     1  UNL1        0.0805
     10 C         143.4627  142.1583  168.5984 C.3     1  UNL1        0.0224
     11 C         142.8623  142.1808  169.9728 C.3     1  UNL1        0.0271
     12 C         141.6071  141.3600  169.9437 C.3     1  UNL1        0.1348
     13 C         140.6885  141.1124  171.1034 C.2     1  UNL1        0.2339
     14 N         140.0696  139.7594  171.2945 N.am    1  UNL1       -0.3277
     15 O         140.3888  142.2178  172.0721 O.2     1  UNL1       -0.2739
     16 H         140.2663  139.0340  170.6587 H       1  UNL1        0.1450
     17 H         139.4667  139.5969  172.0556 H       1  UNL1        0.1450
     18 O         143.4723  140.1628  161.9015 O.3     1  UNL1       -0.4706
     19 C         142.5273  139.2622  161.1626 C.3     1  UNL1        0.2342
     20 C         141.1023  139.1378  161.6142 C.ar    1  UNL1        0.0486
     21 C         140.6346  137.8792  162.2829 C.ar    1  UNL1        0.0016
     22 C         139.2097  137.7548  162.7345 C.ar    1  UNL1       -0.0001
     23 C         138.2523  138.8890  162.5172 C.ar    1  UNL1        0.0023
     24 C         138.7200  140.1475  161.8484 C.ar    1  UNL1        0.0294
     25 C         140.1450  140.2719  161.3969 C.ar    1  UNL1        0.1396
     26 F         140.6127  141.5305  160.7281 F       1  UNL1       -0.2044
@<TRIPOS>BOND
     1     7     8    1
     2     8     9    1
     3     9     1    1
     4     1     2   ar
     5     2     3   ar
     6     3     4   ar
     7     4    18    1
     8    18    19    1
     9    19    20    1
    10    20    21   ar
    11    21    22   ar
    12    22    23   ar
    13    23    24   ar
    14    24    25   ar
    15    25    26    1
    16     4     5   ar
    17     5     6   ar
    18     9    10    1
    19    10    11    1
    20    11    12    1
    21    12    13    1
    22    13    14   am
    23    13    15    2
    24    12     8    1
    25     6     1   ar
    26    25    20   ar
    27    14    16    1
    28    14    17    1
