@<TRIPOS>MOLECULE
*****
 41 46 0 0 0
SMALL
GASTEIGER

@<TRIPOS>ATOM
      1 C         137.8264  142.5021  163.9596 C.3     1  UNL1        0.0932
      2 C         137.6771  142.4752  162.4673 C.3     1  UNL1        0.0286
      3 C         137.7249  141.1686  161.7322 C.3     1  UNL1        0.0193
      4 C         137.9222  139.8888  162.4894 C.3     1  UNL1        0.0700
      5 C         138.0716  139.9157  163.9817 C.3     1  UNL1        0.0193
      6 C         138.0237  141.2225  164.7168 C.3     1  UNL1        0.0286
      7 C         137.9027  140.5804  162.9358 C.3     1  UNL1        0.1562
      8 O         137.8594  141.7619  163.6005 O.3     1  UNL1       -0.3572
      9 N         137.9701  138.5822  161.7543 N.3     1  UNL1       -0.2926
     10 H         137.4157  138.7009  160.9064 H       1  UNL1        0.1236
     11 C         139.2895  138.0071  161.3321 C.3     1  UNL1        0.1152
     12 C         140.5071  138.2208  162.1815 C.ar    1  UNL1        0.0765
     13 C         140.7121  137.3983  163.4191 C.ar    1  UNL1        0.0193
     14 C         141.9298  137.6120  164.2686 C.ar    1  UNL1        0.0411
     15 C         142.9425  138.6483  163.8806 C.ar    1  UNL1        0.1708
     16 C         142.7375  139.4708  162.6431 C.ar    1  UNL1        0.1682
     17 N         141.5199  139.2571  161.7935 N.ar    1  UNL1       -0.2304
     18 N         143.7503  140.5071  162.2550 N.am    1  UNL1       -0.2639
     19 C         144.9679  140.7209  163.1045 C.2     1  UNL1        0.2718
     20 O         145.9806  141.7571  162.7165 O.2     1  UNL1       -0.2707
     21 C         145.1729  139.8983  164.3421 C.3     1  UNL1        0.2898
     22 O         144.1601  138.8620  164.7301 O.3     1  UNL1       -0.4628
     23 H         143.6157  141.0469  161.4428 H       1  UNL1        0.1565
     24 C         137.7786  143.8088  164.6947 C.3     1  UNL1        0.0320
     25 C         139.0009  144.6755  164.7642 C.3     1  UNL1        0.0317
     26 C         140.7523  142.2492  168.1250 C.ar    1  UNL1        0.2250
     27 C         142.1143  141.6381  167.9783 C.ar    1  UNL1        0.0593
     28 C         142.8925  141.8358  166.7113 C.ar    1  UNL1        0.0254
     29 C         142.3087  142.6446  165.5910 C.ar    1  UNL1        0.0989
     30 N         143.0869  142.8423  164.3240 N.ar    1  UNL1       -0.2410
     31 C         142.5032  143.6510  163.2037 C.ar    1  UNL1        0.1169
     32 C         141.1411  144.2621  163.3504 C.ar    1  UNL1        0.1223
     33 C         140.3629  144.0644  164.6174 C.ar    1  UNL1        0.0157
     34 C         140.9468  143.2556  165.7377 C.ar    1  UNL1        0.0992
     35 N         140.1686  143.0579  167.0048 N.ar    1  UNL1       -0.2104
     36 S         140.5573  145.0709  162.2301 S.O2    1  UNL1        0.0117
     37 C         139.9735  145.8797  161.1098 C.3     1  UNL1        0.1816
     38 O         140.8405  146.3313  162.9925 O.2     1  UNL1       -0.1685
     39 O         140.2742  143.8105  161.4678 O.2     1  UNL1       -0.1685
     40 C         139.5205  140.6774  169.7869 C.3     1  UNL1        0.2542
     41 O         139.9741  142.0515  169.3921 O.3     1  UNL1       -0.4561
@<TRIPOS>BOND
     1    40    41    1
     2    41    26    1
     3    26    27   ar
     4    27    28   ar
     5    28    29   ar
     6    29    30   ar
     7    30    31   ar
     8    31    32   ar
     9    32    36    1
    10    36    37    1
    11    36    38    2
    12    36    39    2
    13    32    33   ar
    14    33    25    1
    15    25    24    1
    16    24     1    1
    17     1     2    1
    18     2     3    1
    19     3     4    1
    20     4     9    1
    21     9    11    1
    22    11    12    1
    23    12    13   ar
    24    13    14   ar
    25    14    15   ar
    26    15    16   ar
    27    16    17   ar
    28    16    18    1
    29    18    19   am
    30    19    20    2
    31    19    21    1
    32    21    22    1
    33     4     5    1
    34     5     6    1
    35     4     7    1
    36     7     8    1
    37    33    34   ar
    38    34    35   ar
    39    35    26   ar
    40    34    29   ar
    41     6     1    1
    42     8     1    1
    43    17    12   ar
    44    22    15    1
    45     9    10    1
    46    18    23    1
@<TRIPOS>MOLECULE
*****
 41 46 0 0 0
SMALL
GASTEIGER

@<TRIPOS>ATOM
      1 C         141.5486  138.7102  164.6196 C.3     1  UNL1        0.0932
      2 C         141.5486  139.2387  163.2158 C.3     1  UNL1        0.0286
      3 C         142.8016  139.8235  162.6345 C.3     1  UNL1        0.0193
      4 C         144.0547  139.8799  163.4571 C.3     1  UNL1        0.0700
      5 C         144.0547  139.3515  164.8609 C.3     1  UNL1        0.0193
      6 C         142.8016  138.7666  165.4422 C.3     1  UNL1        0.0286
      7 C         143.3925  139.5503  163.8188 C.3     1  UNL1        0.1562
      8 O         142.2595  139.0215  164.3444 O.3     1  UNL1       -0.3572
      9 N         145.3077  140.4647  162.8758 N.3     1  UNL1       -0.2926
     10 H         145.3204  140.2109  161.8880 H       1  UNL1        0.1236
     11 C         145.5478  141.9437  162.9460 C.3     1  UNL1        0.1152
     12 C         144.3863  142.8928  162.9476 C.ar    1  UNL1        0.0765
     13 C         143.9449  143.5358  164.2290 C.ar    1  UNL1        0.0193
     14 C         142.7834  144.4849  164.2306 C.ar    1  UNL1        0.0411
     15 C         142.0633  144.7911  162.9509 C.ar    1  UNL1        0.1708
     16 C         142.5047  144.1483  161.6696 C.ar    1  UNL1        0.1682
     17 N         143.6662  143.1991  161.6679 N.ar    1  UNL1       -0.2304
     18 N         141.7845  144.4545  160.3899 N.am    1  UNL1       -0.2639
     19 C         140.6230  145.4036  160.3915 C.2     1  UNL1        0.2718
     20 O         139.9029  145.7099  159.1118 O.2     1  UNL1       -0.2707
     21 C         140.1816  146.0466  161.6729 C.3     1  UNL1        0.2898
     22 O         140.9017  145.7403  162.9526 O.3     1  UNL1       -0.4628
     23 H         142.0742  144.0325  159.5489 H       1  UNL1        0.1565
     24 C         140.2956  138.1254  165.2009 C.3     1  UNL1        0.0320
     25 C         139.4478  138.9421  166.1306 C.3     1  UNL1        0.0317
     26 C         137.7104  141.3401  162.7423 C.ar    1  UNL1        0.2250
     27 C         137.8269  142.8355  162.7449 C.ar    1  UNL1        0.0593
     28 C         138.5225  143.5317  163.8769 C.ar    1  UNL1        0.0254
     29 C         139.1016  142.7324  165.0064 C.ar    1  UNL1        0.0989
     30 N         139.7973  143.4285  166.1384 N.ar    1  UNL1       -0.2410
     31 C         140.3764  142.6292  167.2678 C.ar    1  UNL1        0.1169
     32 C         140.2599  141.1337  167.2653 C.ar    1  UNL1        0.1223
     33 C         139.5643  140.4376  166.1332 C.ar    1  UNL1        0.0157
     34 C         138.9852  141.2369  165.0037 C.ar    1  UNL1        0.0992
     35 N         138.2896  140.5408  163.8717 N.ar    1  UNL1       -0.2104
     36 S         140.8391  140.3344  168.3947 S.O2    1  UNL1        0.0117
     37 C         141.4183  139.5351  169.5242 C.3     1  UNL1        0.1816
     38 O         142.2227  140.6688  167.9219 O.2     1  UNL1       -0.1685
     39 O         139.4554  140.0000  168.8675 O.2     1  UNL1       -0.1685
     40 C         137.7578  139.6441  160.7748 C.3     1  UNL1        0.2542
     41 O         137.0148  140.6440  161.6102 O.3     1  UNL1       -0.4561
@<TRIPOS>BOND
     1    40    41    1
     2    41    26    1
     3    26    27   ar
     4    27    28   ar
     5    28    29   ar
     6    29    30   ar
     7    30    31   ar
     8    31    32   ar
     9    32    36    1
    10    36    37    1
    11    36    38    2
    12    36    39    2
    13    32    33   ar
    14    33    25    1
    15    25    24    1
    16    24     1    1
    17     1     2    1
    18     2     3    1
    19     3     4    1
    20     4     9    1
    21     9    11    1
    22    11    12    1
    23    12    13   ar
    24    13    14   ar
    25    14    15   ar
    26    15    16   ar
    27    16    17   ar
    28    16    18    1
    29    18    19   am
    30    19    20    2
    31    19    21    1
    32    21    22    1
    33     4     5    1
    34     5     6    1
    35     4     7    1
    36     7     8    1
    37    33    34   ar
    38    34    35   ar
    39    35    26   ar
    40    34    29   ar
    41     6     1    1
    42     8     1    1
    43    17    12   ar
    44    22    15    1
    45     9    10    1
    46    18    23    1
@<TRIPOS>MOLECULE
*****
 41 46 0 0 0
SMALL
GASTEIGER

@<TRIPOS>ATOM
      1 C         142.2994  138.3268  164.1875 C.3     1  UNL1        0.0932
      2 C         142.4047  138.2328  162.6941 C.3     1  UNL1        0.0286
      3 C         141.1829  137.9461  161.8727 C.3     1  UNL1        0.0193
      4 C         139.8557  137.7532  162.5445 C.3     1  UNL1        0.0700
      5 C         139.7503  137.8472  164.0379 C.3     1  UNL1        0.0193
      6 C         140.9722  138.1340  164.8594 C.3     1  UNL1        0.0286
      7 C         140.4973  137.9084  163.0366 C.3     1  UNL1        0.1562
      8 O         141.6021  138.1677  163.7795 O.3     1  UNL1       -0.3572
      9 N         138.6339  137.4665  161.7230 N.3     1  UNL1       -0.2926
     10 H         138.2299  136.6036  162.0874 H       1  UNL1        0.1236
     11 C         137.5219  138.4710  161.6568 C.3     1  UNL1        0.1152
     12 C         137.8332  139.9379  161.6921 C.ar    1  UNL1        0.0765
     13 C         138.2084  140.6556  160.4294 C.ar    1  UNL1        0.0193
     14 C         138.5197  142.1225  160.4647 C.ar    1  UNL1        0.0411
     15 C         138.4559  142.8717  161.7626 C.ar    1  UNL1        0.1708
     16 C         138.0807  142.1541  163.0252 C.ar    1  UNL1        0.1682
     17 N         137.7693  140.6871  162.9900 N.ar    1  UNL1       -0.2304
     18 N         138.0168  142.9033  164.3231 N.am    1  UNL1       -0.2639
     19 C         138.3281  144.3702  164.3584 C.2     1  UNL1        0.2718
     20 O         138.2643  145.1195  165.6563 O.2     1  UNL1       -0.2707
     21 C         138.7034  145.0879  163.0958 C.3     1  UNL1        0.2898
     22 O         138.7672  144.3387  161.7979 O.3     1  UNL1       -0.4628
     23 H         137.7705  142.4323  165.1518 H       1  UNL1        0.1565
     24 C         143.5212  138.6136  165.0090 C.3     1  UNL1        0.0320
     25 C         144.0458  140.0153  165.1089 C.3     1  UNL1        0.0317
     26 C         141.3707  140.5833  168.6826 C.ar    1  UNL1        0.2250
     27 C         140.4165  141.7397  168.7288 C.ar    1  UNL1        0.0593
     28 C         140.3539  142.7068  167.5839 C.ar    1  UNL1        0.0254
     29 C         141.2456  142.5174  166.3927 C.ar    1  UNL1        0.0989
     30 N         141.1831  143.4845  165.2478 N.ar    1  UNL1       -0.2410
     31 C         142.0747  143.2952  164.0566 C.ar    1  UNL1        0.1169
     32 C         143.0290  142.1388  164.0103 C.ar    1  UNL1        0.1223
     33 C         143.0916  141.1717  165.1552 C.ar    1  UNL1        0.0157
     34 C         142.1998  141.3611  166.3464 C.ar    1  UNL1        0.0992
     35 N         142.2624  140.3940  167.4914 N.ar    1  UNL1       -0.2104
     36 S         143.9207  141.9495  162.8191 S.O2    1  UNL1        0.0117
     37 C         144.8124  141.7602  161.6278 C.3     1  UNL1        0.1816
     38 O         142.7818  141.3297  162.0650 O.2     1  UNL1       -0.1685
     39 O         145.0596  142.5693  163.5731 O.2     1  UNL1       -0.1685
     40 C         142.6351  138.7356  170.0006 C.3     1  UNL1        0.2542
     41 O         141.4332  139.6162  169.8275 O.3     1  UNL1       -0.4561
@<TRIPOS>BOND
     1    40    41    1
     2    41    26    1
     3    26    27   ar
     4    27    28   ar
     5    28    29   ar
     6    29    30   ar
     7    30    31   ar
     8    31    32   ar
     9    32    36    1
    10    36    37    1
    11    36    38    2
    12    36    39    2
    13    32    33   ar
    14    33    25    1
    15    25    24    1
    16    24     1    1
    17     1     2    1
    18     2     3    1
    19     3     4    1
    20     4     9    1
    21     9    11    1
    22    11    12    1
    23    12    13   ar
    24    13    14   ar
    25    14    15   ar
    26    15    16   ar
    27    16    17   ar
    28    16    18    1
    29    18    19   am
    30    19    20    2
    31    19    21    1
    32    21    22    1
    33     4     5    1
    34     5     6    1
    35     4     7    1
    36     7     8    1
    37    33    34   ar
    38    34    35   ar
    39    35    26   ar
    40    34    29   ar
    41     6     1    1
    42     8     1    1
    43    17    12   ar
    44    22    15    1
    45     9    10    1
    46    18    23    1
@<TRIPOS>MOLECULE
*****
 41 46 0 0 0
SMALL
GASTEIGER

@<TRIPOS>ATOM
      1 C         138.1508  141.4522  164.5731 C.3     1  UNL1        0.0932
      2 C         138.8289  142.6099  165.2439 C.3     1  UNL1        0.0286
      3 C         139.0231  143.8984  164.5011 C.3     1  UNL1        0.0193
      4 C         138.5392  144.0293  163.0872 C.3     1  UNL1        0.0700
      5 C         137.8611  142.8717  162.4164 C.3     1  UNL1        0.0193
      6 C         137.6669  141.5831  163.1594 C.3     1  UNL1        0.0286
      7 C         138.4102  143.3034  163.4538 C.3     1  UNL1        0.1562
      8 O         138.2346  142.1383  164.1255 O.3     1  UNL1       -0.3572
      9 N         138.7334  145.3179  162.3443 N.3     1  UNL1       -0.2926
     10 H         138.4197  146.0650  162.9638 H       1  UNL1        0.1236
     11 C         140.0984  145.7041  161.8567 C.3     1  UNL1        0.1152
     12 C         141.2918  144.8788  162.2367 C.ar    1  UNL1        0.0765
     13 C         142.2411  145.3724  163.2880 C.ar    1  UNL1        0.0193
     14 C         143.4346  144.5471  163.6680 C.ar    1  UNL1        0.0411
     15 C         143.6789  143.2282  162.9967 C.ar    1  UNL1        0.1708
     16 C         142.7297  142.7345  161.9453 C.ar    1  UNL1        0.1682
     17 N         141.5361  143.5598  161.5653 N.ar    1  UNL1       -0.2304
     18 N         142.9740  141.4156  161.2740 N.am    1  UNL1       -0.2639
     19 C         144.1675  140.5903  161.6540 C.2     1  UNL1        0.2718
     20 O         144.4118  139.2713  160.9826 O.2     1  UNL1       -0.2707
     21 C         145.1168  141.0839  162.7053 C.3     1  UNL1        0.2898
     22 O         144.8725  142.4029  163.3767 O.3     1  UNL1       -0.4628
     23 H         142.3510  141.0916  160.5840 H       1  UNL1        0.1565
     24 C         137.9566  140.1637  165.3160 C.3     1  UNL1        0.0320
     25 C         138.9097  139.0249  165.1043 C.3     1  UNL1        0.0317
     26 C         140.0873  140.2985  169.2565 C.ar    1  UNL1        0.2250
     27 C         141.5365  140.4578  169.6094 C.ar    1  UNL1        0.0593
     28 C         142.5931  140.1926  168.5783 C.ar    1  UNL1        0.0254
     29 C         142.2006  139.7681  167.1942 C.ar    1  UNL1        0.0989
     30 N         143.2572  139.5029  166.1631 N.ar    1  UNL1       -0.2410
     31 C         142.8646  139.0784  164.7790 C.ar    1  UNL1        0.1169
     32 C         141.4154  138.9190  164.4261 C.ar    1  UNL1        0.1223
     33 C         140.3588  139.1842  165.4572 C.ar    1  UNL1        0.0157
     34 C         140.7514  139.6088  166.8413 C.ar    1  UNL1        0.0992
     35 N         139.6948  139.8740  167.8725 N.ar    1  UNL1       -0.2104
     36 S         141.0229  138.4945  163.0420 S.O2    1  UNL1        0.0117
     37 C         140.6304  138.0700  161.6579 C.3     1  UNL1        0.1816
     38 O         140.8158  139.9303  162.6604 O.2     1  UNL1       -0.1685
     39 O         141.2300  137.0588  163.4237 O.2     1  UNL1       -0.1685
     40 C         137.7939  139.7162  170.3293 C.3     1  UNL1        0.2542
     41 O         139.0307  140.5637  170.2877 O.3     1  UNL1       -0.4561
@<TRIPOS>BOND
     1    40    41    1
     2    41    26    1
     3    26    27   ar
     4    27    28   ar
     5    28    29   ar
     6    29    30   ar
     7    30    31   ar
     8    31    32   ar
     9    32    36    1
    10    36    37    1
    11    36    38    2
    12    36    39    2
    13    32    33   ar
    14    33    25    1
    15    25    24    1
    16    24     1    1
    17     1     2    1
    18     2     3    1
    19     3     4    1
    20     4     9    1
    21     9    11    1
    22    11    12    1
    23    12    13   ar
    24    13    14   ar
    25    14    15   ar
    26    15    16   ar
    27    16    17   ar
    28    16    18    1
    29    18    19   am
    30    19    20    2
    31    19    21    1
    32    21    22    1
    33     4     5    1
    34     5     6    1
    35     4     7    1
    36     7     8    1
    37    33    34   ar
    38    34    35   ar
    39    35    26   ar
    40    34    29   ar
    41     6     1    1
    42     8     1    1
    43    17    12   ar
    44    22    15    1
    45     9    10    1
    46    18    23    1
@<TRIPOS>MOLECULE
*****
 41 46 0 0 0
SMALL
GASTEIGER

@<TRIPOS>ATOM
      1 C         143.5304  141.5282  164.0286 C.3     1  UNL1        0.0932
      2 C         142.7733  142.3810  165.0029 C.3     1  UNL1        0.0286
      3 C         142.2500  143.7210  164.5780 C.3     1  UNL1        0.0193
      4 C         142.4839  144.2082  163.1787 C.3     1  UNL1        0.0700
      5 C         143.2410  143.3553  162.2043 C.3     1  UNL1        0.0193
      6 C         143.7643  142.0152  162.6293 C.3     1  UNL1        0.0286
      7 C         142.7898  143.4669  163.3654 C.3     1  UNL1        0.1562
      8 O         143.2630  142.2552  163.7496 O.3     1  UNL1       -0.3572
      9 N         141.9606  145.5482  162.7538 N.3     1  UNL1       -0.2926
     10 H         142.5858  145.8905  162.0241 H       1  UNL1        0.1236
     11 C         140.5640  145.6735  162.2212 C.3     1  UNL1        0.1152
     12 C         139.7110  144.4505  162.0581 C.ar    1  UNL1        0.0765
     13 C         138.6173  144.1620  163.0434 C.ar    1  UNL1        0.0193
     14 C         137.7643  142.9390  162.8803 C.ar    1  UNL1        0.0411
     15 C         138.0049  142.0045  161.7319 C.ar    1  UNL1        0.1708
     16 C         139.0984  142.2929  160.7466 C.ar    1  UNL1        0.1682
     17 N         139.9515  143.5160  160.9097 N.ar    1  UNL1       -0.2304
     18 N         139.3390  141.3584  159.5982 N.am    1  UNL1       -0.2639
     19 C         138.4860  140.1355  159.4351 C.2     1  UNL1        0.2718
     20 O         138.7265  139.2009  158.2867 O.2     1  UNL1       -0.2707
     21 C         137.3923  139.8469  160.4204 C.3     1  UNL1        0.2898
     22 O         137.1518  140.7814  161.5688 O.3     1  UNL1       -0.4628
     23 H         140.0567  141.5478  158.9515 H       1  UNL1        0.1565
     24 C         144.0536  140.1882  164.4535 C.3     1  UNL1        0.0320
     25 C         143.1679  138.9797  164.3811 C.3     1  UNL1        0.0317
     26 C         141.9187  139.9064  168.6038 C.ar    1  UNL1        0.2250
     27 C         140.4631  140.0218  168.9471 C.ar    1  UNL1        0.0593
     28 C         139.4239  139.8283  167.8828 C.ar    1  UNL1        0.0254
     29 C         139.8403  139.5194  166.4753 C.ar    1  UNL1        0.0989
     30 N         138.8010  139.3260  165.4111 N.ar    1  UNL1       -0.2410
     31 C         139.2174  139.0171  164.0035 C.ar    1  UNL1        0.1169
     32 C         140.6731  138.9017  163.6602 C.ar    1  UNL1        0.1223
     33 C         141.7123  139.0951  164.7244 C.ar    1  UNL1        0.0157
     34 C         141.2958  139.4040  166.1320 C.ar    1  UNL1        0.0992
     35 N         142.3351  139.5975  167.1962 N.ar    1  UNL1       -0.2104
     36 S         141.0894  138.5928  162.2526 S.O2    1  UNL1        0.0117
     37 C         141.5058  138.2840  160.8450 C.3     1  UNL1        0.1816
     38 O         141.1080  140.0590  161.9364 O.2     1  UNL1       -0.1685
     39 O         141.0708  137.1267  162.5689 O.2     1  UNL1       -0.1685
     40 C         143.4578  141.4777  169.9865 C.3     1  UNL1        0.2542
     41 O         142.9579  140.0998  169.6680 O.3     1  UNL1       -0.4561
@<TRIPOS>BOND
     1    40    41    1
     2    41    26    1
     3    26    27   ar
     4    27    28   ar
     5    28    29   ar
     6    29    30   ar
     7    30    31   ar
     8    31    32   ar
     9    32    36    1
    10    36    37    1
    11    36    38    2
    12    36    39    2
    13    32    33   ar
    14    33    25    1
    15    25    24    1
    16    24     1    1
    17     1     2    1
    18     2     3    1
    19     3     4    1
    20     4     9    1
    21     9    11    1
    22    11    12    1
    23    12    13   ar
    24    13    14   ar
    25    14    15   ar
    26    15    16   ar
    27    16    17   ar
    28    16    18    1
    29    18    19   am
    30    19    20    2
    31    19    21    1
    32    21    22    1
    33     4     5    1
    34     5     6    1
    35     4     7    1
    36     7     8    1
    37    33    34   ar
    38    34    35   ar
    39    35    26   ar
    40    34    29   ar
    41     6     1    1
    42     8     1    1
    43    17    12   ar
    44    22    15    1
    45     9    10    1
    46    18    23    1
@<TRIPOS>MOLECULE
*****
 41 46 0 0 0
SMALL
GASTEIGER

@<TRIPOS>ATOM
      1 C         141.7612  137.9761  164.6468 C.3     1  UNL1        0.0932
      2 C         142.1302  137.9618  163.1930 C.3     1  UNL1        0.0286
      3 C         141.0592  137.8528  162.1484 C.3     1  UNL1        0.0193
      4 C         139.6192  137.7580  162.5577 C.3     1  UNL1        0.0700
      5 C         139.2502  137.7723  164.0115 C.3     1  UNL1        0.0193
      6 C         140.3212  137.8814  165.0561 C.3     1  UNL1        0.0286
      7 C         140.1708  137.8162  163.1661 C.3     1  UNL1        0.1562
      8 O         141.1392  137.9148  164.1107 O.3     1  UNL1       -0.3572
      9 N         138.5482  137.6489  161.5131 N.3     1  UNL1       -0.2926
     10 H         138.0910  136.7480  161.6532 H       1  UNL1        0.1236
     11 C         137.4611  138.6800  161.4431 C.3     1  UNL1        0.1152
     12 C         137.8031  140.1378  161.5320 C.ar    1  UNL1        0.0765
     13 C         138.2114  140.8889  160.2994 C.ar    1  UNL1        0.0193
     14 C         138.5535  142.3466  160.3882 C.ar    1  UNL1        0.0411
     15 C         138.4872  143.0533  161.7097 C.ar    1  UNL1        0.1708
     16 C         138.0790  142.3023  162.9422 C.ar    1  UNL1        0.1682
     17 N         137.7369  140.8445  162.8534 N.ar    1  UNL1       -0.2304
     18 N         138.0127  143.0090  164.2636 N.am    1  UNL1       -0.2639
     19 C         138.3548  144.4668  164.3525 C.2     1  UNL1        0.2718
     20 O         138.2885  145.1735  165.6739 O.2     1  UNL1       -0.2707
     21 C         138.7631  145.2179  163.1199 C.3     1  UNL1        0.2898
     22 O         138.8293  144.5111  161.7985 O.3     1  UNL1       -0.4628
     23 H         137.7447  142.5161  165.0726 H       1  UNL1        0.1565
     24 C         142.8321  138.0852  165.6913 C.3     1  UNL1        0.0320
     25 C         143.4675  139.4134  165.9783 C.3     1  UNL1        0.0317
     26 C         143.5496  141.7223  162.1167 C.ar    1  UNL1        0.2250
     27 C         142.7478  142.9826  161.9792 C.ar    1  UNL1        0.0593
     28 C         141.9187  143.4732  163.1289 C.ar    1  UNL1        0.0254
     29 C         141.8914  142.7036  164.4161 C.ar    1  UNL1        0.0989
     30 N         141.0623  143.1942  165.5658 N.ar    1  UNL1       -0.2410
     31 C         141.0349  142.4246  166.8530 C.ar    1  UNL1        0.1169
     32 C         141.8367  141.1643  166.9905 C.ar    1  UNL1        0.1223
     33 C         142.6658  140.6737  165.8408 C.ar    1  UNL1        0.0157
     34 C         142.6931  141.4434  164.5536 C.ar    1  UNL1        0.0992
     35 N         143.5222  140.9527  163.4038 N.ar    1  UNL1       -0.2104
     36 S         141.8093  140.3947  168.2777 S.O2    1  UNL1        0.0117
     37 C         141.7819  139.6250  169.5650 C.3     1  UNL1        0.1816
     38 O         140.5433  139.7164  167.8452 O.2     1  UNL1       -0.1685
     39 O         143.0753  141.0730  168.7102 O.2     1  UNL1       -0.1685
     40 C         143.7476  141.0235  159.6222 C.3     1  UNL1        0.2542
     41 O         144.3787  141.2317  160.9669 O.3     1  UNL1       -0.4561
@<TRIPOS>BOND
     1    40    41    1
     2    41    26    1
     3    26    27   ar
     4    27    28   ar
     5    28    29   ar
     6    29    30   ar
     7    30    31   ar
     8    31    32   ar
     9    32    36    1
    10    36    37    1
    11    36    38    2
    12    36    39    2
    13    32    33   ar
    14    33    25    1
    15    25    24    1
    16    24     1    1
    17     1     2    1
    18     2     3    1
    19     3     4    1
    20     4     9    1
    21     9    11    1
    22    11    12    1
    23    12    13   ar
    24    13    14   ar
    25    14    15   ar
    26    15    16   ar
    27    16    17   ar
    28    16    18    1
    29    18    19   am
    30    19    20    2
    31    19    21    1
    32    21    22    1
    33     4     5    1
    34     5     6    1
    35     4     7    1
    36     7     8    1
    37    33    34   ar
    38    34    35   ar
    39    35    26   ar
    40    34    29   ar
    41     6     1    1
    42     8     1    1
    43    17    12   ar
    44    22    15    1
    45     9    10    1
    46    18    23    1
@<TRIPOS>MOLECULE
*****
 41 46 0 0 0
SMALL
GASTEIGER

@<TRIPOS>ATOM
      1 C         141.2449  138.5213  164.1340 C.3     1  UNL1        0.0932
      2 C         142.1585  138.7662  165.2981 C.3     1  UNL1        0.0286
      3 C         143.5492  139.2780  165.0654 C.3     1  UNL1        0.0193
      4 C         144.0262  139.5448  163.6685 C.3     1  UNL1        0.0700
      5 C         143.1125  139.2999  162.5043 C.3     1  UNL1        0.0193
      6 C         141.7218  138.7881  162.7371 C.3     1  UNL1        0.0286
      7 C         143.2558  139.2649  163.7463 C.3     1  UNL1        0.1562
      8 O         141.9983  138.8021  163.9567 O.3     1  UNL1       -0.3572
      9 N         145.4168  140.0566  163.4358 N.3     1  UNL1       -0.2926
     10 H         145.6971  139.7365  162.5087 H       1  UNL1        0.1236
     11 C         145.6920  141.5303  163.4864 C.3     1  UNL1        0.1152
     12 C         144.5686  142.5093  163.3147 C.ar    1  UNL1        0.0765
     13 C         143.9970  143.2123  164.5102 C.ar    1  UNL1        0.0193
     14 C         142.8736  144.1913  164.3384 C.ar    1  UNL1        0.0411
     15 C         142.3219  144.4675  162.9712 C.ar    1  UNL1        0.1708
     16 C         142.8935  143.7646  161.7757 C.ar    1  UNL1        0.1682
     17 N         144.0169  142.7855  161.9474 N.ar    1  UNL1       -0.2304
     18 N         142.3418  144.0407  160.4085 N.am    1  UNL1       -0.2639
     19 C         141.2185  145.0198  160.2367 C.2     1  UNL1        0.2718
     20 O         140.6667  145.2959  158.8694 O.2     1  UNL1       -0.2707
     21 C         140.6468  145.7227  161.4322 C.3     1  UNL1        0.2898
     22 O         141.1985  145.4466  162.7994 O.3     1  UNL1       -0.4628
     23 H         142.7170  143.5794  159.6238 H       1  UNL1        0.1565
     24 C         139.8542  138.0095  164.3667 C.3     1  UNL1        0.0320
     25 C         138.7153  138.9742  164.5163 C.3     1  UNL1        0.0317
     26 C         140.2791  140.5528  168.4294 C.ar    1  UNL1        0.2250
     27 C         140.5540  142.0186  168.5907 C.ar    1  UNL1        0.0593
     28 C         140.3075  142.9581  167.4477 C.ar    1  UNL1        0.0254
     29 C         139.7862  142.4319  166.1433 C.ar    1  UNL1        0.0989
     30 N         139.5398  143.3714  165.0003 N.ar    1  UNL1       -0.2410
     31 C         139.0185  142.8453  163.6960 C.ar    1  UNL1        0.1169
     32 C         138.7437  141.3795  163.5346 C.ar    1  UNL1        0.1223
     33 C         138.9901  140.4399  164.6776 C.ar    1  UNL1        0.0157
     34 C         139.5114  140.9662  165.9820 C.ar    1  UNL1        0.0992
     35 N         139.7579  140.0266  167.1251 N.ar    1  UNL1       -0.2104
     36 S         138.2224  140.8533  162.2303 S.O2    1  UNL1        0.0117
     37 C         137.7011  140.3270  160.9258 C.3     1  UNL1        0.1816
     38 O         139.6288  140.6420  161.7534 O.2     1  UNL1       -0.1685
     39 O         136.8160  141.0645  162.7071 O.2     1  UNL1       -0.1685
     40 C         140.0980  139.9914  170.9596 C.3     1  UNL1        0.2542
     41 O         140.5256  139.6133  169.5724 O.3     1  UNL1       -0.4561
@<TRIPOS>BOND
     1    40    41    1
     2    41    26    1
     3    26    27   ar
     4    27    28   ar
     5    28    29   ar
     6    29    30   ar
     7    30    31   ar
     8    31    32   ar
     9    32    36    1
    10    36    37    1
    11    36    38    2
    12    36    39    2
    13    32    33   ar
    14    33    25    1
    15    25    24    1
    16    24     1    1
    17     1     2    1
    18     2     3    1
    19     3     4    1
    20     4     9    1
    21     9    11    1
    22    11    12    1
    23    12    13   ar
    24    13    14   ar
    25    14    15   ar
    26    15    16   ar
    27    16    17   ar
    28    16    18    1
    29    18    19   am
    30    19    20    2
    31    19    21    1
    32    21    22    1
    33     4     5    1
    34     5     6    1
    35     4     7    1
    36     7     8    1
    37    33    34   ar
    38    34    35   ar
    39    35    26   ar
    40    34    29   ar
    41     6     1    1
    42     8     1    1
    43    17    12   ar
    44    22    15    1
    45     9    10    1
    46    18    23    1
@<TRIPOS>MOLECULE
*****
 41 46 0 0 0
SMALL
GASTEIGER

@<TRIPOS>ATOM
      1 C         139.2121  142.5965  164.2031 C.3     1  UNL1        0.0932
      2 C         140.1845  143.1581  165.1976 C.3     1  UNL1        0.0286
      3 C         141.3299  144.0063  164.7299 C.3     1  UNL1        0.0193
      4 C         141.5029  144.2928  163.2677 C.3     1  UNL1        0.0700
      5 C         140.5305  143.7312  162.2732 C.3     1  UNL1        0.0193
      6 C         139.3851  142.8830  162.7409 C.3     1  UNL1        0.0286
      7 C         140.8598  143.8228  163.4762 C.3     1  UNL1        0.1562
      8 O         139.8241  143.0559  163.8991 O.3     1  UNL1       -0.3572
      9 N         142.6482  145.1410  162.8000 N.3     1  UNL1       -0.2926
     10 H         142.7610  145.8875  163.4858 H       1  UNL1        0.1236
     11 C         144.0027  144.5282  162.6003 C.3     1  UNL1        0.1152
     12 C         144.1506  143.0364  162.5477 C.ar    1  UNL1        0.0765
     13 C         144.9143  142.3201  163.6219 C.ar    1  UNL1        0.0193
     14 C         145.0622  140.8284  163.5694 C.ar    1  UNL1        0.0411
     15 C         144.4465  140.0529  162.4427 C.ar    1  UNL1        0.1708
     16 C         143.6829  140.7691  161.3685 C.ar    1  UNL1        0.1682
     17 N         143.5349  142.2609  161.4210 N.ar    1  UNL1       -0.2304
     18 N         143.0672  139.9936  160.2418 N.am    1  UNL1       -0.2639
     19 C         143.2151  138.5018  160.1893 C.2     1  UNL1        0.2718
     20 O         142.5994  137.7263  159.0626 O.2     1  UNL1       -0.2707
     21 C         143.9788  137.7856  161.2635 C.3     1  UNL1        0.2898
     22 O         144.5945  138.5611  162.3902 O.3     1  UNL1       -0.4628
     23 H         142.5660  140.4637  159.5368 H       1  UNL1        0.1565
     24 C         138.0668  141.7484  164.6707 C.3     1  UNL1        0.0320
     25 C         138.2319  140.2618  164.7848 C.3     1  UNL1        0.0317
     26 C         140.4052  140.7928  168.6893 C.ar    1  UNL1        0.2250
     27 C         141.7716  140.2019  168.8734 C.ar    1  UNL1        0.0593
     28 C         142.4135  139.4340  167.7562 C.ar    1  UNL1        0.0254
     29 C         141.6890  139.2570  166.4547 C.ar    1  UNL1        0.0989
     30 N         142.3309  138.4891  165.3374 N.ar    1  UNL1       -0.2410
     31 C         141.6065  138.3121  164.0360 C.ar    1  UNL1        0.1169
     32 C         140.2401  138.9030  163.8517 C.ar    1  UNL1        0.1223
     33 C         139.5982  139.6709  164.9690 C.ar    1  UNL1        0.0157
     34 C         140.3227  139.8479  166.2705 C.ar    1  UNL1        0.0992
     35 N         139.6808  140.6158  167.3878 N.ar    1  UNL1       -0.2104
     36 S         139.5157  138.7260  162.5503 S.O2    1  UNL1        0.0117
     37 C         138.7913  138.5490  161.2487 C.3     1  UNL1        0.1816
     38 O         140.3292  139.8324  161.9470 O.2     1  UNL1       -0.1685
     39 O         138.7022  137.6196  163.1536 O.2     1  UNL1       -0.1685
     40 C         140.5935  142.0427  170.9591 C.3     1  UNL1        0.2542
     41 O         139.7633  141.5607  169.8065 O.3     1  UNL1       -0.4561
@<TRIPOS>BOND
     1    40    41    1
     2    41    26    1
     3    26    27   ar
     4    27    28   ar
     5    28    29   ar
     6    29    30   ar
     7    30    31   ar
     8    31    32   ar
     9    32    36    1
    10    36    37    1
    11    36    38    2
    12    36    39    2
    13    32    33   ar
    14    33    25    1
    15    25    24    1
    16    24     1    1
    17     1     2    1
    18     2     3    1
    19     3     4    1
    20     4     9    1
    21     9    11    1
    22    11    12    1
    23    12    13   ar
    24    13    14   ar
    25    14    15   ar
    26    15    16   ar
    27    16    17   ar
    28    16    18    1
    29    18    19   am
    30    19    20    2
    31    19    21    1
    32    21    22    1
    33     4     5    1
    34     5     6    1
    35     4     7    1
    36     7     8    1
    37    33    34   ar
    38    34    35   ar
    39    35    26   ar
    40    34    29   ar
    41     6     1    1
    42     8     1    1
    43    17    12   ar
    44    22    15    1
    45     9    10    1
    46    18    23    1
@<TRIPOS>MOLECULE
*****
 41 46 0 0 0
SMALL
GASTEIGER

@<TRIPOS>ATOM
      1 C         143.8825  139.5925  163.0015 C.3     1  UNL1        0.0932
      2 C         143.2291  139.2463  161.6964 C.3     1  UNL1        0.0286
      3 C         141.9900  138.4013  161.6789 C.3     1  UNL1        0.0193
      4 C         141.4041  137.9024  162.9666 C.3     1  UNL1        0.0700
      5 C         142.0575  138.2486  164.2717 C.3     1  UNL1        0.0193
      6 C         143.2967  139.0937  164.2891 C.3     1  UNL1        0.0286
      7 C         142.0844  138.3624  163.0265 C.3     1  UNL1        0.1562
      8 O         143.2049  139.1265  163.0423 O.3     1  UNL1       -0.3572
      9 N         140.1649  137.0574  162.9491 N.3     1  UNL1       -0.2926
     10 H         140.3238  136.2883  163.6000 H       1  UNL1        0.1236
     11 C         138.8399  137.6618  163.3082 C.3     1  UNL1        0.1152
     12 C         138.5636  139.1027  162.9963 C.ar    1  UNL1        0.0765
     13 C         138.1461  139.5040  161.6125 C.ar    1  UNL1        0.0193
     14 C         137.8698  140.9449  161.3007 C.ar    1  UNL1        0.0411
     15 C         138.0109  141.9847  162.3726 C.ar    1  UNL1        0.1708
     16 C         138.4284  141.5835  163.7563 C.ar    1  UNL1        0.1682
     17 N         138.7047  140.1425  164.0682 N.ar    1  UNL1       -0.2304
     18 N         138.5695  142.6233  164.8282 N.am    1  UNL1       -0.2639
     19 C         138.2932  144.0642  164.5163 C.2     1  UNL1        0.2718
     20 O         138.4343  145.1040  165.5882 O.2     1  UNL1       -0.2707
     21 C         137.8757  144.4655  163.1325 C.3     1  UNL1        0.2898
     22 O         137.7346  143.4257  162.0607 O.3     1  UNL1       -0.4628
     23 H         138.8435  142.3600  165.7364 H       1  UNL1        0.1565
     24 C         145.1217  140.4375  163.0190 C.3     1  UNL1        0.0320
     25 C         145.0100  141.9308  163.1067 C.3     1  UNL1        0.0317
     26 C         144.6208  142.6094  158.6753 C.ar    1  UNL1        0.2250
     27 C         143.4102  143.3045  158.1265 C.ar    1  UNL1        0.0593
     28 C         142.3293  143.7734  159.0548 C.ar    1  UNL1        0.0254
     29 C         142.4590  143.5472  160.5320 C.ar    1  UNL1        0.0989
     30 N         141.3781  144.0161  161.4603 N.ar    1  UNL1       -0.2410
     31 C         141.5079  143.7900  162.9374 C.ar    1  UNL1        0.1169
     32 C         142.7185  143.0948  163.4863 C.ar    1  UNL1        0.1223
     33 C         143.7994  142.6259  162.5580 C.ar    1  UNL1        0.0157
     34 C         143.6696  142.8521  161.0807 C.ar    1  UNL1        0.0992
     35 N         144.7505  142.3832  160.1524 N.ar    1  UNL1       -0.2104
     36 S         142.8483  142.8686  164.9634 S.O2    1  UNL1        0.0117
     37 C         142.9780  142.6424  166.4406 C.3     1  UNL1        0.1816
     38 O         141.7299  141.8705  164.9088 O.2     1  UNL1       -0.1685
     39 O         143.9666  143.8667  165.0180 O.2     1  UNL1       -0.1685
     40 C         146.9150  142.9921  157.5176 C.3     1  UNL1        0.2542
     41 O         145.7017  142.1405  157.7469 O.3     1  UNL1       -0.4561
@<TRIPOS>BOND
     1    40    41    1
     2    41    26    1
     3    26    27   ar
     4    27    28   ar
     5    28    29   ar
     6    29    30   ar
     7    30    31   ar
     8    31    32   ar
     9    32    36    1
    10    36    37    1
    11    36    38    2
    12    36    39    2
    13    32    33   ar
    14    33    25    1
    15    25    24    1
    16    24     1    1
    17     1     2    1
    18     2     3    1
    19     3     4    1
    20     4     9    1
    21     9    11    1
    22    11    12    1
    23    12    13   ar
    24    13    14   ar
    25    14    15   ar
    26    15    16   ar
    27    16    17   ar
    28    16    18    1
    29    18    19   am
    30    19    20    2
    31    19    21    1
    32    21    22    1
    33     4     5    1
    34     5     6    1
    35     4     7    1
    36     7     8    1
    37    33    34   ar
    38    34    35   ar
    39    35    26   ar
    40    34    29   ar
    41     6     1    1
    42     8     1    1
    43    17    12   ar
    44    22    15    1
    45     9    10    1
    46    18    23    1
