@<TRIPOS>MOLECULE
*****
 31 35 0 0 0
SMALL
GASTEIGER

@<TRIPOS>ATOM
      1 C         140.2879  141.2927  166.5337 C.2     1  UNL1        0.2697
      2 O         140.7865  142.4592  165.7333 O.2     1  UNL1       -0.2681
      3 N         140.0553  141.4395  168.0083 N.am    1  UNL1       -0.2779
      4 C         139.5614  140.3675  168.9340 C.3     1  UNL1        0.0773
      5 C         139.4767  140.9494  170.3139 C.3     1  UNL1        0.0216
      6 C         139.9182  142.3812  170.2410 C.3     1  UNL1        0.0216
      7 C         140.2758  142.6840  168.8161 C.3     1  UNL1        0.0773
      8 C         140.5587  142.7005  167.3333 C.3     1  UNL1        0.0393
      9 C         140.2926  141.3872  166.6590 C.3     1  UNL1        0.0724
     10 C         139.7940  140.2207  167.4594 C.3     1  UNL1        0.0393
     11 C         140.9941  136.5617  164.2979 C.3     1  UNL1        0.0750
     12 C         140.3464  137.8048  164.8318 C.ar    1  UNL1        0.1509
     13 O         138.8783  138.1122  164.8124 O.2     1  UNL1       -0.3579
     14 N         138.6778  139.4562  165.4475 N.ar    1  UNL1       -0.0730
     15 C         140.0218  139.9795  165.8595 C.ar    1  UNL1        0.1718
     16 C         141.0531  138.9589  165.4790 C.ar    1  UNL1        0.0364
     17 C         142.5315  139.0723  165.7059 C.3     1  UNL1        0.0358
     18 N         140.5252  141.2405  165.1845 N.pl3   1  UNL1       -0.3326
     19 H         140.7438  140.3583  164.8060 H       1  UNL1        0.1468
     20 C         140.4246  142.4378  164.2865 C.ar    1  UNL1        0.0702
     21 C         139.0811  143.0186  163.9586 C.ar    1  UNL1        0.0767
     22 C         138.9805  144.2159  163.0607 C.ar    1  UNL1        0.2634
     23 O         137.6369  144.7967  162.7328 O.2     1  UNL1       -0.2669
     24 N         140.2234  144.8324  162.4906 N.ar    1  UNL1       -0.2774
     25 C         140.1228  146.0297  161.5927 C.3     1  UNL1        0.1351
     26 C         141.5670  144.2516  162.8185 C.ar    1  UNL1        0.1652
     27 N         142.8099  144.8681  162.2484 N.ar    1  UNL1       -0.2234
     28 C         144.1535  144.2872  162.5763 C.ar    1  UNL1        0.1212
     29 C         144.2540  143.0899  163.4742 C.ar    1  UNL1        0.1196
     30 N         143.0111  142.4734  164.0443 N.ar    1  UNL1       -0.2379
     31 C         141.6676  143.0543  163.7164 C.ar    1  UNL1        0.1286
@<TRIPOS>BOND
     1    11    12    1
     2    12    13   ar
     3    13    14   ar
     4    14    15   ar
     5    15     1    1
     6     1     2    2
     7     1     3   am
     8     3     4    1
     9     4     5    1
    10     5     6    1
    11     7     6    1
    12     7     8    1
    13     8     9    1
    14     9    18    1
    15    18    20    1
    16    20    21   ar
    17    21    22   ar
    18    22    23    2
    19    22    24   ar
    20    24    25    1
    21    24    26   ar
    22    26    27   ar
    23    27    28   ar
    24    28    29   ar
    25    29    30   ar
    26    30    31   ar
    27     9    10    1
    28    15    16   ar
    29    16    17    1
    30    16    12   ar
    31     7     3    1
    32    31    20   ar
    33    10     4    1
    34    31    26   ar
    35    18    19    1
@<TRIPOS>MOLECULE
*****
 31 35 0 0 0
SMALL
GASTEIGER

@<TRIPOS>ATOM
      1 C         141.0907  142.9646  164.5547 C.2     1  UNL1        0.2697
      2 O         140.5428  142.8103  165.9426 O.2     1  UNL1       -0.2681
      3 N         140.4381  143.9119  163.5919 N.am    1  UNL1       -0.2779
      4 C         140.8711  144.1704  162.1792 C.3     1  UNL1        0.0773
      5 C         139.9387  145.1851  161.5869 C.3     1  UNL1        0.0216
      6 C         138.9294  145.5538  162.6336 C.3     1  UNL1        0.0216
      7 C         139.2381  144.7669  163.8727 C.3     1  UNL1        0.0773
      8 C         139.7755  143.8617  164.9548 C.3     1  UNL1        0.0393
      9 C         140.9758  143.0688  164.5298 C.3     1  UNL1        0.0724
     10 C         141.5236  143.2231  163.1420 C.3     1  UNL1        0.0393
     11 C         146.0876  141.4578  163.7547 C.3     1  UNL1        0.0750
     12 C         144.5878  141.4792  163.7620 C.ar    1  UNL1        0.1509
     13 O         143.6882  140.4242  163.1894 O.2     1  UNL1       -0.3579
     14 N         142.2687  140.8522  163.4167 N.ar    1  UNL1       -0.0730
     15 C         142.2909  142.1718  164.1297 C.ar    1  UNL1        0.1718
     16 C         143.7242  142.5592  164.3431 C.ar    1  UNL1        0.0364
     17 C         144.2089  143.8075  165.0190 C.3     1  UNL1        0.0358
     18 N         141.6283  142.1216  165.4927 N.pl3   1  UNL1       -0.3326
     19 H         142.5472  141.8086  165.3289 H       1  UNL1        0.1468
     20 C         140.8807  141.6514  166.7051 C.ar    1  UNL1        0.0702
     21 C         141.0873  142.3335  168.0249 C.ar    1  UNL1        0.0767
     22 C         140.3397  141.8632  169.2374 C.ar    1  UNL1        0.2634
     23 O         140.5463  142.5454  170.5572 O.2     1  UNL1       -0.2669
     24 N         139.3855  140.7109  169.1300 N.ar    1  UNL1       -0.2774
     25 C         138.6379  140.2406  170.3424 C.3     1  UNL1        0.1351
     26 C         139.1789  140.0287  167.8101 C.ar    1  UNL1        0.1652
     27 N         138.2247  138.8763  167.7027 N.ar    1  UNL1       -0.2234
     28 C         138.0181  138.1942  166.3828 C.ar    1  UNL1        0.1212
     29 C         138.7657  138.6645  165.1704 C.ar    1  UNL1        0.1196
     30 N         139.7199  139.8168  165.2778 N.ar    1  UNL1       -0.2379
     31 C         139.9265  140.4989  166.5976 C.ar    1  UNL1        0.1286
@<TRIPOS>BOND
     1    11    12    1
     2    12    13   ar
     3    13    14   ar
     4    14    15   ar
     5    15     1    1
     6     1     2    2
     7     1     3   am
     8     3     4    1
     9     4     5    1
    10     5     6    1
    11     7     6    1
    12     7     8    1
    13     8     9    1
    14     9    18    1
    15    18    20    1
    16    20    21   ar
    17    21    22   ar
    18    22    23    2
    19    22    24   ar
    20    24    25    1
    21    24    26   ar
    22    26    27   ar
    23    27    28   ar
    24    28    29   ar
    25    29    30   ar
    26    30    31   ar
    27     9    10    1
    28    15    16   ar
    29    16    17    1
    30    16    12   ar
    31     7     3    1
    32    31    20   ar
    33    10     4    1
    34    31    26   ar
    35    18    19    1
@<TRIPOS>MOLECULE
*****
 31 35 0 0 0
SMALL
GASTEIGER

@<TRIPOS>ATOM
      1 C         142.3739  140.9512  166.3461 C.2     1  UNL1        0.2697
      2 O         142.6308  142.1090  165.4277 O.2     1  UNL1       -0.2681
      3 N         142.7272  141.0545  167.8003 N.am    1  UNL1       -0.2779
      4 C         142.5298  139.9853  168.8337 C.3     1  UNL1        0.0773
      5 C         143.0205  140.5151  170.1484 C.3     1  UNL1        0.0216
      6 C         143.5211  141.9118  169.9275 C.3     1  UNL1        0.0216
      7 C         143.3399  142.2451  168.4763 C.3     1  UNL1        0.0773
      8 C         143.0437  142.3010  166.9970 C.3     1  UNL1        0.0393
      9 C         142.4335  141.0398  166.4611 C.3     1  UNL1        0.0724
     10 C         142.1765  139.8820  167.3795 C.3     1  UNL1        0.0393
     11 C         138.8585  137.2334  165.0419 C.3     1  UNL1        0.0750
     12 C         140.1479  137.9812  165.2108 C.ar    1  UNL1        0.1509
     13 O         141.5016  137.5174  164.7607 O.2     1  UNL1       -0.3579
     14 N         142.5002  138.5735  165.1312 N.ar    1  UNL1       -0.0730
     15 C         141.7637  139.6900  165.8103 C.ar    1  UNL1        0.1718
     16 C         140.3099  139.3239  165.8595 C.ar    1  UNL1        0.0364
     17 C         139.2111  140.1546  166.4531 C.3     1  UNL1        0.0358
     18 N         142.0802  140.9366  165.0070 N.pl3   1  UNL1       -0.3326
     19 H         142.1411  140.0688  164.5461 H       1  UNL1        0.1468
     20 C         141.6342  142.1555  164.2551 C.ar    1  UNL1        0.0702
     21 C         140.5631  143.0378  164.8246 C.ar    1  UNL1        0.0767
     22 C         140.1171  144.2567  164.0727 C.ar    1  UNL1        0.2634
     23 O         139.0460  145.1390  164.6423 O.2     1  UNL1       -0.2669
     24 N         140.7421  144.5933  162.7514 N.ar    1  UNL1       -0.2774
     25 C         140.2960  145.8122  161.9995 C.3     1  UNL1        0.1351
     26 C         141.8132  143.7109  162.1818 C.ar    1  UNL1        0.1652
     27 N         142.4382  144.0475  160.8605 N.ar    1  UNL1       -0.2234
     28 C         143.5092  143.1652  160.2910 C.ar    1  UNL1        0.1212
     29 C         143.9553  141.9463  161.0429 C.ar    1  UNL1        0.1196
     30 N         143.3303  141.6097  162.3643 N.ar    1  UNL1       -0.2379
     31 C         142.2592  142.4920  162.9337 C.ar    1  UNL1        0.1286
@<TRIPOS>BOND
     1    11    12    1
     2    12    13   ar
     3    13    14   ar
     4    14    15   ar
     5    15     1    1
     6     1     2    2
     7     1     3   am
     8     3     4    1
     9     4     5    1
    10     5     6    1
    11     7     6    1
    12     7     8    1
    13     8     9    1
    14     9    18    1
    15    18    20    1
    16    20    21   ar
    17    21    22   ar
    18    22    23    2
    19    22    24   ar
    20    24    25    1
    21    24    26   ar
    22    26    27   ar
    23    27    28   ar
    24    28    29   ar
    25    29    30   ar
    26    30    31   ar
    27     9    10    1
    28    15    16   ar
    29    16    17    1
    30    16    12   ar
    31     7     3    1
    32    31    20   ar
    33    10     4    1
    34    31    26   ar
    35    18    19    1
@<TRIPOS>MOLECULE
*****
 31 35 0 0 0
SMALL
GASTEIGER

@<TRIPOS>ATOM
      1 C         140.2062  141.4419  167.3097 C.2     1  UNL1        0.2697
      2 O         140.4116  142.7957  166.6974 O.2     1  UNL1       -0.2681
      3 N         140.3263  141.2642  168.7944 N.am    1  UNL1       -0.2779
      4 C         140.1488  139.9780  169.5456 C.3     1  UNL1        0.0773
      5 C         140.3578  140.2604  171.0039 C.3     1  UNL1        0.0216
      6 C         140.6644  141.7211  171.1539 C.3     1  UNL1        0.0216
      7 C         140.6450  142.3414  169.7884 C.3     1  UNL1        0.0773
      8 C         140.5598  142.6856  168.3209 C.3     1  UNL1        0.0393
      9 C         140.2342  141.5095  167.4486 C.3     1  UNL1        0.0724
     10 C         140.0287  140.1557  168.0610 C.3     1  UNL1        0.0393
     11 C         140.6767  137.0311  164.4454 C.3     1  UNL1        0.0750
     12 C         140.0969  138.2384  165.1209 C.ar    1  UNL1        0.1509
     13 O         138.6622  138.6735  165.0698 O.2     1  UNL1       -0.3579
     14 N         138.5286  139.9264  165.8835 N.ar    1  UNL1       -0.0730
     15 C         139.8806  140.2658  166.4375 C.ar    1  UNL1        0.1718
     16 C         140.8498  139.2225  165.9663 C.ar    1  UNL1        0.0364
     17 C         142.3148  139.1721  166.2844 C.3     1  UNL1        0.0358
     18 N         140.1141  141.6872  165.9641 N.pl3   1  UNL1       -0.3326
     19 H         139.4089  141.2130  165.4670 H       1  UNL1        0.1468
     20 C         141.0684  142.5874  165.2368 C.ar    1  UNL1        0.0702
     21 C         142.5407  142.4959  165.5086 C.ar    1  UNL1        0.0767
     22 C         143.4950  143.3961  164.7813 C.ar    1  UNL1        0.2634
     23 O         144.9674  143.3045  165.0532 O.2     1  UNL1       -0.2669
     24 N         142.9770  144.3879  163.7823 N.ar    1  UNL1       -0.2774
     25 C         143.9314  145.2881  163.0551 C.3     1  UNL1        0.1351
     26 C         141.5047  144.4794  163.5105 C.ar    1  UNL1        0.1652
     27 N         140.9867  145.4712  162.5115 N.ar    1  UNL1       -0.2234
     28 C         139.5144  145.5627  162.2397 C.ar    1  UNL1        0.1212
     29 C         138.5601  144.6625  162.9670 C.ar    1  UNL1        0.1196
     30 N         139.0781  143.6708  163.9660 N.ar    1  UNL1       -0.2379
     31 C         140.5504  143.5792  164.2378 C.ar    1  UNL1        0.1286
@<TRIPOS>BOND
     1    11    12    1
     2    12    13   ar
     3    13    14   ar
     4    14    15   ar
     5    15     1    1
     6     1     2    2
     7     1     3   am
     8     3     4    1
     9     4     5    1
    10     5     6    1
    11     7     6    1
    12     7     8    1
    13     8     9    1
    14     9    18    1
    15    18    20    1
    16    20    21   ar
    17    21    22   ar
    18    22    23    2
    19    22    24   ar
    20    24    25    1
    21    24    26   ar
    22    26    27   ar
    23    27    28   ar
    24    28    29   ar
    25    29    30   ar
    26    30    31   ar
    27     9    10    1
    28    15    16   ar
    29    16    17    1
    30    16    12   ar
    31     7     3    1
    32    31    20   ar
    33    10     4    1
    34    31    26   ar
    35    18    19    1
@<TRIPOS>MOLECULE
*****
 31 35 0 0 0
SMALL
GASTEIGER

@<TRIPOS>ATOM
      1 C         142.1158  142.3660  164.3919 C.2     1  UNL1        0.2697
      2 O         141.7664  141.9889  165.8010 O.2     1  UNL1       -0.2681
      3 N         143.4664  142.0229  163.8366 N.am    1  UNL1       -0.2779
      4 C         143.9558  142.3337  162.4532 C.3     1  UNL1        0.0773
      5 C         145.3565  141.8116  162.3288 C.3     1  UNL1        0.0216
      6 C         145.7327  141.1780  163.6354 C.3     1  UNL1        0.0216
      7 C         144.5645  141.3086  164.5672 C.3     1  UNL1        0.0773
      8 C         143.2570  141.5795  165.2715 C.3     1  UNL1        0.0393
      9 C         142.2558  142.2998  164.4176 C.3     1  UNL1        0.0724
     10 C         142.6052  142.6769  163.0085 C.3     1  UNL1        0.0393
     11 C         139.4868  146.1977  161.8846 C.3     1  UNL1        0.0750
     12 C         139.9063  144.8475  162.3856 C.ar    1  UNL1        0.1509
     13 O         139.2422  143.5418  162.0626 O.2     1  UNL1       -0.3579
     14 N         139.9891  142.4534  162.7749 N.ar    1  UNL1       -0.0730
     15 C         141.1148  143.0863  163.5381 C.ar    1  UNL1        0.1718
     16 C         141.0636  144.5660  163.2974 C.ar    1  UNL1        0.0364
     17 C         142.0045  145.5852  163.8683 C.3     1  UNL1        0.0358
     18 N         140.9053  142.6429  164.9729 N.pl3   1  UNL1       -0.3326
     19 H         140.3069  143.2455  164.4749 H       1  UNL1        0.1468
     20 C         140.4666  142.0680  166.2870 C.ar    1  UNL1        0.0702
     21 C         140.8353  142.7566  167.5675 C.ar    1  UNL1        0.0767
     22 C         140.3965  142.1817  168.8817 C.ar    1  UNL1        0.2634
     23 O         140.7653  142.8704  170.1622 O.2     1  UNL1       -0.2669
     24 N         139.5890  140.9181  168.9153 N.ar    1  UNL1       -0.2774
     25 C         139.1502  140.3431  170.2294 C.3     1  UNL1        0.1351
     26 C         139.2202  140.2294  167.6347 C.ar    1  UNL1        0.1652
     27 N         138.4127  138.9658  167.6683 N.ar    1  UNL1       -0.2234
     28 C         138.0440  138.2771  166.3878 C.ar    1  UNL1        0.1212
     29 C         138.4827  138.8521  165.0737 C.ar    1  UNL1        0.1196
     30 N         139.2903  140.1157  165.0401 N.ar    1  UNL1       -0.2379
     31 C         139.6590  140.8043  166.3206 C.ar    1  UNL1        0.1286
@<TRIPOS>BOND
     1    11    12    1
     2    12    13   ar
     3    13    14   ar
     4    14    15   ar
     5    15     1    1
     6     1     2    2
     7     1     3   am
     8     3     4    1
     9     4     5    1
    10     5     6    1
    11     7     6    1
    12     7     8    1
    13     8     9    1
    14     9    18    1
    15    18    20    1
    16    20    21   ar
    17    21    22   ar
    18    22    23    2
    19    22    24   ar
    20    24    25    1
    21    24    26   ar
    22    26    27   ar
    23    27    28   ar
    24    28    29   ar
    25    29    30   ar
    26    30    31   ar
    27     9    10    1
    28    15    16   ar
    29    16    17    1
    30    16    12   ar
    31     7     3    1
    32    31    20   ar
    33    10     4    1
    34    31    26   ar
    35    18    19    1
@<TRIPOS>MOLECULE
*****
 31 35 0 0 0
SMALL
GASTEIGER

@<TRIPOS>ATOM
      1 C         140.9323  140.0011  167.0978 C.2     1  UNL1        0.2697
      2 O         139.5460  140.2207  166.5687 O.2     1  UNL1       -0.2681
      3 N         141.1977  140.1025  168.5707 N.am    1  UNL1       -0.2779
      4 C         142.5247  139.9095  169.2428 C.3     1  UNL1        0.0773
      5 C         142.3299  140.1024  170.7175 C.3     1  UNL1        0.0216
      6 C         140.8823  140.4146  170.9568 C.3     1  UNL1        0.0216
      7 C         140.1826  140.4146  169.6300 C.3     1  UNL1        0.0773
      8 C         139.7522  140.3488  168.1845 C.3     1  UNL1        0.0393
      9 C         140.8731  140.0278  167.2408 C.3     1  UNL1        0.0724
     10 C         142.2593  139.8081  167.7699 C.3     1  UNL1        0.0393
     11 C         145.2356  140.4564  164.0722 C.3     1  UNL1        0.0750
     12 C         144.0312  139.8893  164.7634 C.ar    1  UNL1        0.1509
     13 O         143.5248  138.4827  164.6404 O.2     1  UNL1       -0.3579
     14 N         142.3023  138.3534  165.4999 N.ar    1  UNL1       -0.0730
     15 C         142.0531  139.6800  166.1541 C.ar    1  UNL1        0.1718
     16 C         143.1216  140.6293  165.6989 C.ar    1  UNL1        0.0364
     17 C         143.2569  142.0662  166.1075 C.3     1  UNL1        0.0358
     18 N         140.6076  139.9264  165.7679 N.pl3   1  UNL1       -0.3326
     19 H         140.9349  139.1484  165.2612 H       1  UNL1        0.1468
     20 C         139.8435  141.0104  165.0672 C.ar    1  UNL1        0.0702
     21 C         139.8461  142.4058  165.6175 C.ar    1  UNL1        0.0767
     22 C         139.0820  143.4898  164.9167 C.ar    1  UNL1        0.2634
     23 O         139.0846  144.8852  165.4671 O.2     1  UNL1       -0.2669
     24 N         138.3153  143.1784  163.6657 N.ar    1  UNL1       -0.2774
     25 C         137.5512  144.2624  162.9649 C.3     1  UNL1        0.1351
     26 C         138.3127  141.7830  163.1153 C.ar    1  UNL1        0.1652
     27 N         137.5460  141.4716  161.8642 N.ar    1  UNL1       -0.2234
     28 C         137.5435  140.0762  161.3139 C.ar    1  UNL1        0.1212
     29 C         138.3076  138.9922  162.0147 C.ar    1  UNL1        0.1196
     30 N         139.0743  139.3036  163.2657 N.ar    1  UNL1       -0.2379
     31 C         139.0768  140.6990  163.8160 C.ar    1  UNL1        0.1286
@<TRIPOS>BOND
     1    11    12    1
     2    12    13   ar
     3    13    14   ar
     4    14    15   ar
     5    15     1    1
     6     1     2    2
     7     1     3   am
     8     3     4    1
     9     4     5    1
    10     5     6    1
    11     7     6    1
    12     7     8    1
    13     8     9    1
    14     9    18    1
    15    18    20    1
    16    20    21   ar
    17    21    22   ar
    18    22    23    2
    19    22    24   ar
    20    24    25    1
    21    24    26   ar
    22    26    27   ar
    23    27    28   ar
    24    28    29   ar
    25    29    30   ar
    26    30    31   ar
    27     9    10    1
    28    15    16   ar
    29    16    17    1
    30    16    12   ar
    31     7     3    1
    32    31    20   ar
    33    10     4    1
    34    31    26   ar
    35    18    19    1
@<TRIPOS>MOLECULE
*****
 31 35 0 0 0
SMALL
GASTEIGER

@<TRIPOS>ATOM
      1 C         140.8146  140.7038  166.4542 C.2     1  UNL1        0.2697
      2 O         141.7835  140.8050  165.3135 O.2     1  UNL1       -0.2681
      3 N         139.7171  139.6820  166.4175 N.am    1  UNL1       -0.2779
      4 C         138.6795  139.4641  167.4786 C.3     1  UNL1        0.0773
      5 C         137.7856  138.3461  167.0303 C.3     1  UNL1        0.0216
      6 C         138.2708  137.8730  165.6921 C.3     1  UNL1        0.0216
      7 C         139.4645  138.6986  165.3134 C.3     1  UNL1        0.0773
      8 C         140.6173  139.6665  165.1974 C.3     1  UNL1        0.0393
      9 C         140.7459  140.5872  166.3747 C.3     1  UNL1        0.0724
     10 C         139.7770  140.4860  167.5153 C.3     1  UNL1        0.0393
     11 C         142.3433  142.7799  171.0621 C.3     1  UNL1        0.0750
     12 C         141.6458  142.5787  169.7494 C.ar    1  UNL1        0.1509
     13 O         140.6363  143.5036  169.1365 O.2     1  UNL1       -0.3579
     14 N         140.2021  142.9138  167.8275 N.ar    1  UNL1       -0.0730
     15 C         140.9432  141.6244  167.6314 C.ar    1  UNL1        0.1718
     16 C         141.8355  141.4174  168.8192 C.ar    1  UNL1        0.0364
     17 C         142.7558  140.2534  169.0384 C.3     1  UNL1        0.0358
     18 N         141.8434  141.6090  166.4113 N.pl3   1  UNL1       -0.3326
     19 H         142.1026  142.0225  167.2663 H       1  UNL1        0.1468
     20 C         142.5459  142.0007  165.1452 C.ar    1  UNL1        0.0702
     21 C         143.8244  141.3200  164.7554 C.ar    1  UNL1        0.0767
     22 C         144.5269  141.7118  163.4893 C.ar    1  UNL1        0.2634
     23 O         145.8055  141.0309  163.0995 O.2     1  UNL1       -0.2669
     24 N         143.9510  142.7843  162.6130 N.ar    1  UNL1       -0.2774
     25 C         144.6535  143.1761  161.3469 C.3     1  UNL1        0.1351
     26 C         142.6724  143.4651  163.0028 C.ar    1  UNL1        0.1652
     27 N         142.0964  144.5377  162.1265 N.ar    1  UNL1       -0.2234
     28 C         140.8180  145.2184  162.5164 C.ar    1  UNL1        0.1212
     29 C         140.1154  144.8266  163.7824 C.ar    1  UNL1        0.1196
     30 N         140.6914  143.7541  164.6587 N.ar    1  UNL1       -0.2379
     31 C         141.9699  143.0733  164.2689 C.ar    1  UNL1        0.1286
@<TRIPOS>BOND
     1    11    12    1
     2    12    13   ar
     3    13    14   ar
     4    14    15   ar
     5    15     1    1
     6     1     2    2
     7     1     3   am
     8     3     4    1
     9     4     5    1
    10     5     6    1
    11     7     6    1
    12     7     8    1
    13     8     9    1
    14     9    18    1
    15    18    20    1
    16    20    21   ar
    17    21    22   ar
    18    22    23    2
    19    22    24   ar
    20    24    25    1
    21    24    26   ar
    22    26    27   ar
    23    27    28   ar
    24    28    29   ar
    25    29    30   ar
    26    30    31   ar
    27     9    10    1
    28    15    16   ar
    29    16    17    1
    30    16    12   ar
    31     7     3    1
    32    31    20   ar
    33    10     4    1
    34    31    26   ar
    35    18    19    1
@<TRIPOS>MOLECULE
*****
 31 35 0 0 0
SMALL
GASTEIGER

@<TRIPOS>ATOM
      1 C         140.2911  139.6832  164.5755 C.2     1  UNL1        0.2697
      2 O         140.5765  141.1061  164.9548 O.2     1  UNL1       -0.2681
      3 N         139.3079  138.8775  165.3720 N.am    1  UNL1       -0.2779
      4 C         138.9227  137.4510  165.1139 C.3     1  UNL1        0.0773
      5 C         137.9141  137.0487  166.1487 C.3     1  UNL1        0.0216
      6 C         137.6760  138.2266  167.0464 C.3     1  UNL1        0.0216
      7 C         138.5374  139.3568  166.5664 C.3     1  UNL1        0.0773
      8 C         139.4934  140.2968  165.8723 C.3     1  UNL1        0.0393
      9 C         140.1912  139.6796  164.6966 C.3     1  UNL1        0.0724
     10 C         139.9058  138.2567  164.3174 C.3     1  UNL1        0.0393
     11 C         144.0264  137.6005  161.4788 C.3     1  UNL1        0.0750
     12 C         142.7058  138.1086  161.9765 C.ar    1  UNL1        0.1509
     13 O         141.4194  138.1236  161.2051 O.2     1  UNL1       -0.3579
     14 N         140.3583  138.7153  162.0848 N.ar    1  UNL1       -0.0730
     15 C         140.9888  139.0660  163.3999 C.ar    1  UNL1        0.1718
     16 C         142.4397  138.6910  163.3329 C.ar    1  UNL1        0.0364
     17 C         143.4475  138.8675  164.4298 C.3     1  UNL1        0.0358
     18 N         141.1743  140.4853  163.9002 N.pl3   1  UNL1       -0.3326
     19 H         142.0532  140.1044  163.6727 H       1  UNL1        0.1468
     20 C         140.8184  141.8713  163.4505 C.ar    1  UNL1        0.0702
     21 C         139.4885  142.1330  162.8080 C.ar    1  UNL1        0.0767
     22 C         139.1326  143.5190  162.3582 C.ar    1  UNL1        0.2634
     23 O         137.8026  143.7807  161.7157 O.2     1  UNL1       -0.2669
     24 N         140.1066  144.6434  162.5510 N.ar    1  UNL1       -0.2774
     25 C         139.7507  146.0294  162.1012 C.3     1  UNL1        0.1351
     26 C         141.4366  144.3817  163.1935 C.ar    1  UNL1        0.1652
     27 N         142.4106  145.5060  163.3862 N.ar    1  UNL1       -0.2234
     28 C         143.7405  145.2443  164.0287 C.ar    1  UNL1        0.1212
     29 C         144.0964  143.8583  164.4785 C.ar    1  UNL1        0.1196
     30 N         143.1224  142.7340  164.2857 N.ar    1  UNL1       -0.2379
     31 C         141.7925  142.9957  163.6432 C.ar    1  UNL1        0.1286
@<TRIPOS>BOND
     1    11    12    1
     2    12    13   ar
     3    13    14   ar
     4    14    15   ar
     5    15     1    1
     6     1     2    2
     7     1     3   am
     8     3     4    1
     9     4     5    1
    10     5     6    1
    11     7     6    1
    12     7     8    1
    13     8     9    1
    14     9    18    1
    15    18    20    1
    16    20    21   ar
    17    21    22   ar
    18    22    23    2
    19    22    24   ar
    20    24    25    1
    21    24    26   ar
    22    26    27   ar
    23    27    28   ar
    24    28    29   ar
    25    29    30   ar
    26    30    31   ar
    27     9    10    1
    28    15    16   ar
    29    16    17    1
    30    16    12   ar
    31     7     3    1
    32    31    20   ar
    33    10     4    1
    34    31    26   ar
    35    18    19    1
@<TRIPOS>MOLECULE
*****
 31 35 0 0 0
SMALL
GASTEIGER

@<TRIPOS>ATOM
      1 C         140.8794  142.9941  164.2350 C.2     1  UNL1        0.2697
      2 O         139.9381  142.0229  164.8837 O.2     1  UNL1       -0.2681
      3 N         140.3400  144.1176  163.4001 N.am    1  UNL1       -0.2779
      4 C         141.1542  145.1605  162.6934 C.3     1  UNL1        0.0773
      5 C         140.2092  146.0828  161.9818 C.3     1  UNL1        0.0216
      6 C         138.8109  145.6099  162.2489 C.3     1  UNL1        0.0216
      7 C         138.8918  144.3954  163.1254 C.3     1  UNL1        0.0773
      8 C         139.2717  143.2181  163.9907 C.3     1  UNL1        0.0393
      9 C         140.7523  143.0658  164.1769 C.3     1  UNL1        0.0724
     10 C         141.6936  144.0370  163.5283 C.3     1  UNL1        0.0393
     11 C         145.9007  141.5116  163.5500 C.3     1  UNL1        0.0750
     12 C         144.6680  142.1605  164.1064 C.ar    1  UNL1        0.1509
     13 O         144.6087  143.0550  165.3091 O.2     1  UNL1       -0.3579
     14 N         143.1823  143.4761  165.5037 N.ar    1  UNL1       -0.0730
     15 C         142.3600  142.8420  164.4212 C.ar    1  UNL1        0.1718
     16 C         143.2782  142.0289  163.5576 C.ar    1  UNL1        0.0364
     17 C         142.8771  141.2253  162.3563 C.3     1  UNL1        0.0358
     18 N         141.2917  141.9424  165.0118 N.pl3   1  UNL1       -0.3326
     19 H         142.2406  141.9355  165.2740 H       1  UNL1        0.1468
     20 C         140.3852  140.8294  165.4472 C.ar    1  UNL1        0.0702
     21 C         139.9005  139.8221  164.4471 C.ar    1  UNL1        0.0767
     22 C         138.9940  138.7091  164.8826 C.ar    1  UNL1        0.2634
     23 O         138.5093  137.7018  163.8823 O.2     1  UNL1       -0.2669
     24 N         138.5722  138.6035  166.3181 N.ar    1  UNL1       -0.2774
     25 C         137.6658  137.4905  166.7536 C.3     1  UNL1        0.1351
     26 C         139.0569  139.6109  167.3183 C.ar    1  UNL1        0.1652
     27 N         138.6352  139.5052  168.7539 N.ar    1  UNL1       -0.2234
     28 C         139.1199  140.5126  169.7540 C.ar    1  UNL1        0.1212
     29 C         140.0263  141.6255  169.3186 C.ar    1  UNL1        0.1196
     30 N         140.4481  141.7312  167.8830 N.ar    1  UNL1       -0.2379
     31 C         139.9634  140.7238  166.8829 C.ar    1  UNL1        0.1286
@<TRIPOS>BOND
     1    11    12    1
     2    12    13   ar
     3    13    14   ar
     4    14    15   ar
     5    15     1    1
     6     1     2    2
     7     1     3   am
     8     3     4    1
     9     4     5    1
    10     5     6    1
    11     7     6    1
    12     7     8    1
    13     8     9    1
    14     9    18    1
    15    18    20    1
    16    20    21   ar
    17    21    22   ar
    18    22    23    2
    19    22    24   ar
    20    24    25    1
    21    24    26   ar
    22    26    27   ar
    23    27    28   ar
    24    28    29   ar
    25    29    30   ar
    26    30    31   ar
    27     9    10    1
    28    15    16   ar
    29    16    17    1
    30    16    12   ar
    31     7     3    1
    32    31    20   ar
    33    10     4    1
    34    31    26   ar
    35    18    19    1
