@<TRIPOS>MOLECULE
*****
 25 28 0 0 0
SMALL
GASTEIGER

@<TRIPOS>ATOM
      1 C         140.4696  141.8591  169.5736 C.ar    1  UNL1        0.0701
      2 C         139.5394  140.8987  168.8938 C.ar    1  UNL1        0.0801
      3 N         139.8689  140.3755  167.5272 N.ar    1  UNL1       -0.3277
      4 C         141.1287  140.8128  166.8403 C.ar    1  UNL1        0.0643
      5 C         141.4582  140.2897  165.4737 C.ar    1  UNL1        0.0341
      6 C         142.7179  140.7270  164.7869 C.ar    1  UNL1        0.0772
      7 C         143.6482  141.6875  165.4667 C.ar    1  UNL1        0.1535
      8 F         144.9080  142.1248  164.7798 F       1  UNL1       -0.2029
      9 C         143.3187  142.2106  166.8333 C.ar    1  UNL1        0.0355
     10 C         142.0589  141.7733  167.5201 C.ar    1  UNL1        0.0571
     11 C         141.7294  142.2964  168.8868 C.ar    1  UNL1        0.1996
     12 O         142.6596  143.2569  169.5667 O.2     1  UNL1       -0.2864
     13 N         143.0475  140.2039  163.4202 N.pl3   1  UNL1       -0.3029
     14 C         143.0303  141.1283  162.2390 C.3     1  UNL1        0.1079
     15 C         143.3598  140.6052  160.8724 C.3     1  UNL1        0.0903
     16 N         143.7066  139.1576  160.6868 N.3     1  UNL1       -0.2946
     17 C         143.7238  138.2332  161.8680 C.3     1  UNL1        0.0903
     18 C         143.3943  138.7564  163.2347 C.3     1  UNL1        0.1079
     19 H         144.6400  139.1287  160.2766 H       1  UNL1        0.1233
     20 O         139.2258  143.5617  171.0916 O.co2   1  UNL1       -0.5444
     21 C         140.1401  142.3823  170.9403 C.2     1  UNL1        0.0774
     22 O         140.7249  141.7259  172.1557 O.co2   1  UNL1       -0.5444
     23 C         138.9386  139.4151  166.8474 C.3     1  UNL1        0.0856
     24 C         138.4958  138.6903  165.6110 C.3     1  UNL1        0.0245
     25 C         137.7703  138.4763  166.9063 C.3     1  UNL1        0.0245
@<TRIPOS>UNITY_ATOM_ATTR
20 1
charge -1
@<TRIPOS>BOND
     1    20    21   ar
     2    21    22   ar
     3    21     1    1
     4     1     2   ar
     5     2     3   ar
     6     3    23    1
     7    23    24    1
     8    24    25    1
     9     3     4   ar
    10     4     5   ar
    11     5     6   ar
    12     6    13    1
    13    13    14    1
    14    14    15    1
    15    15    16    1
    16    16    17    1
    17    17    18    1
    18     6     7   ar
    19     7     8    1
    20     7     9   ar
    21     9    10   ar
    22    10    11   ar
    23    11    12    2
    24    11     1   ar
    25    25    23    1
    26    10     4   ar
    27    18    13    1
    28    16    19    1
@<TRIPOS>MOLECULE
*****
 25 28 0 0 0
SMALL
GASTEIGER

@<TRIPOS>ATOM
      1 C         140.5031  141.9034  169.6032 C.ar    1  UNL1        0.0701
      2 C         141.4111  142.5316  168.5878 C.ar    1  UNL1        0.0801
      3 N         141.4198  142.0268  167.1754 N.ar    1  UNL1       -0.3277
      4 C         140.5206  140.8938  166.7782 C.ar    1  UNL1        0.0643
      5 C         140.5293  140.3890  165.3658 C.ar    1  UNL1        0.0341
      6 C         139.6301  139.2560  164.9687 C.ar    1  UNL1        0.0772
      7 C         138.7221  138.6279  165.9841 C.ar    1  UNL1        0.1535
      8 F         137.8228  137.4948  165.5869 F       1  UNL1       -0.2029
      9 C         138.7134  139.1326  167.3965 C.ar    1  UNL1        0.0355
     10 C         139.6126  140.2656  167.7936 C.ar    1  UNL1        0.0571
     11 C         139.6039  140.7704  169.2061 C.ar    1  UNL1        0.1996
     12 O         138.6959  140.1423  170.2215 O.2     1  UNL1       -0.2864
     13 N         139.6388  138.7512  163.5562 N.pl3   1  UNL1       -0.3029
     14 C         140.9220  138.2866  162.9337 C.3     1  UNL1        0.1079
     15 C         140.9308  137.7818  161.5213 C.3     1  UNL1        0.0903
     16 N         139.6563  137.7415  160.7312 N.3     1  UNL1       -0.2946
     17 C         138.3731  138.2061  161.3537 C.3     1  UNL1        0.0903
     18 C         138.3643  138.7110  162.7662 C.3     1  UNL1        0.1079
     19 H         139.5136  136.7710  160.4518 H       1  UNL1        0.1233
     20 O         139.3162  143.1823  171.5283 O.co2   1  UNL1       -0.5444
     21 C         140.4944  142.4083  171.0157 C.2     1  UNL1        0.0774
     22 O         141.6639  142.1391  171.9156 O.co2   1  UNL1       -0.5444
     23 C         142.3278  142.6550  166.1600 C.3     1  UNL1        0.0856
     24 C         143.7108  142.9403  165.6542 C.3     1  UNL1        0.0245
     25 C         142.5174  143.4577  164.9072 C.3     1  UNL1        0.0245
@<TRIPOS>UNITY_ATOM_ATTR
20 1
charge -1
@<TRIPOS>BOND
     1    20    21   ar
     2    21    22   ar
     3    21     1    1
     4     1     2   ar
     5     2     3   ar
     6     3    23    1
     7    23    24    1
     8    24    25    1
     9     3     4   ar
    10     4     5   ar
    11     5     6   ar
    12     6    13    1
    13    13    14    1
    14    14    15    1
    15    15    16    1
    16    16    17    1
    17    17    18    1
    18     6     7   ar
    19     7     8    1
    20     7     9   ar
    21     9    10   ar
    22    10    11   ar
    23    11    12    2
    24    11     1   ar
    25    25    23    1
    26    10     4   ar
    27    18    13    1
    28    16    19    1
@<TRIPOS>MOLECULE
*****
 25 28 0 0 0
SMALL
GASTEIGER

@<TRIPOS>ATOM
      1 C         140.6791  140.1325  169.0685 C.ar    1  UNL1        0.0701
      2 C         139.6521  140.5398  168.0540 C.ar    1  UNL1        0.0801
      3 N         139.9726  140.4650  166.5906 N.ar    1  UNL1       -0.3277
      4 C         141.3203  139.9830  166.1416 C.ar    1  UNL1        0.0643
      5 C         141.6408  139.9082  164.6782 C.ar    1  UNL1        0.0341
      6 C         142.9884  139.4261  164.2294 C.ar    1  UNL1        0.0772
      7 C         144.0155  139.0188  165.2439 C.ar    1  UNL1        0.1535
      8 F         145.3632  138.5368  164.7949 F       1  UNL1       -0.2029
      9 C         143.6950  139.0936  166.7073 C.ar    1  UNL1        0.0355
     10 C         142.3473  139.5757  167.1562 C.ar    1  UNL1        0.0571
     11 C         142.0267  139.6505  168.6197 C.ar    1  UNL1        0.1996
     12 O         143.0538  139.2432  169.6342 O.2     1  UNL1       -0.2864
     13 N         143.3091  139.3513  162.7659 N.pl3   1  UNL1       -0.3029
     14 C         143.2195  138.0392  162.0446 C.3     1  UNL1        0.1079
     15 C         143.5401  137.9643  160.5812 C.3     1  UNL1        0.0903
     16 N         143.9502  139.2017  159.8390 N.3     1  UNL1       -0.2946
     17 C         144.0398  140.5139  160.5603 C.3     1  UNL1        0.0903
     18 C         143.7191  140.5886  162.0237 C.3     1  UNL1        0.1079
     19 H         143.2784  139.3271  159.0818 H       1  UNL1        0.1233
     20 O         139.2879  139.3307  171.1110 O.co2   1  UNL1       -0.5444
     21 C         140.3585  140.2073  170.5320 C.2     1  UNL1        0.0774
     22 O         141.1085  141.1588  171.4164 O.co2   1  UNL1       -0.5444
     23 C         138.9456  140.8723  165.5761 C.3     1  UNL1        0.0856
     24 C         138.1975  141.9468  164.8441 C.3     1  UNL1        0.0245
     25 C         137.9147  140.5032  164.5508 C.3     1  UNL1        0.0245
@<TRIPOS>UNITY_ATOM_ATTR
20 1
charge -1
@<TRIPOS>BOND
     1    20    21   ar
     2    21    22   ar
     3    21     1    1
     4     1     2   ar
     5     2     3   ar
     6     3    23    1
     7    23    24    1
     8    24    25    1
     9     3     4   ar
    10     4     5   ar
    11     5     6   ar
    12     6    13    1
    13    13    14    1
    14    14    15    1
    15    15    16    1
    16    16    17    1
    17    17    18    1
    18     6     7   ar
    19     7     8    1
    20     7     9   ar
    21     9    10   ar
    22    10    11   ar
    23    11    12    2
    24    11     1   ar
    25    25    23    1
    26    10     4   ar
    27    18    13    1
    28    16    19    1
@<TRIPOS>MOLECULE
*****
 25 28 0 0 0
SMALL
GASTEIGER

@<TRIPOS>ATOM
      1 C         139.9455  140.5609  168.5118 C.ar    1  UNL1        0.0701
      2 C         141.1394  141.2725  167.9480 C.ar    1  UNL1        0.0801
      3 N         141.5552  141.0302  166.5273 N.ar    1  UNL1       -0.3277
      4 C         140.7770  140.0762  165.6704 C.ar    1  UNL1        0.0643
      5 C         141.1928  139.8339  164.2497 C.ar    1  UNL1        0.0341
      6 C         140.4146  138.8799  163.3929 C.ar    1  UNL1        0.0772
      7 C         139.2206  138.1682  163.9567 C.ar    1  UNL1        0.1535
      8 F         138.4423  137.2142  163.0998 F       1  UNL1       -0.2029
      9 C         138.8048  138.4105  165.3774 C.ar    1  UNL1        0.0355
     10 C         139.5830  139.3645  166.2342 C.ar    1  UNL1        0.0571
     11 C         139.1672  139.6069  167.6550 C.ar    1  UNL1        0.1996
     12 O         137.9733  138.8952  168.2188 O.2     1  UNL1       -0.2864
     13 N         140.8303  138.6375  161.9721 N.pl3   1  UNL1       -0.3029
     14 C         142.1656  138.0216  161.6761 C.3     1  UNL1        0.1079
     15 C         142.5814  137.7793  160.2554 C.3     1  UNL1        0.0903
     16 N         141.6619  138.1528  159.1307 N.3     1  UNL1       -0.2946
     17 C         140.3266  138.7687  159.4267 C.3     1  UNL1        0.0903
     18 C         139.9108  139.0110  160.8475 C.3     1  UNL1        0.1079
     19 H         141.4818  137.2994  158.6018 H       1  UNL1        0.1233
     20 O         139.3323  139.6444  170.8643 O.co2   1  UNL1       -0.5444
     21 C         139.5297  140.8032  169.9326 C.2     1  UNL1        0.0774
     22 O         139.3114  142.2044  170.4215 O.co2   1  UNL1       -0.5444
     23 C         142.7492  141.7419  165.9635 C.3     1  UNL1        0.0856
     24 C         144.0598  141.7038  165.2350 C.3     1  UNL1        0.0245
     25 C         143.5066  143.0127  165.7154 C.3     1  UNL1        0.0245
@<TRIPOS>UNITY_ATOM_ATTR
20 1
charge -1
@<TRIPOS>BOND
     1    20    21   ar
     2    21    22   ar
     3    21     1    1
     4     1     2   ar
     5     2     3   ar
     6     3    23    1
     7    23    24    1
     8    24    25    1
     9     3     4   ar
    10     4     5   ar
    11     5     6   ar
    12     6    13    1
    13    13    14    1
    14    14    15    1
    15    15    16    1
    16    16    17    1
    17    17    18    1
    18     6     7   ar
    19     7     8    1
    20     7     9   ar
    21     9    10   ar
    22    10    11   ar
    23    11    12    2
    24    11     1   ar
    25    25    23    1
    26    10     4   ar
    27    18    13    1
    28    16    19    1
@<TRIPOS>MOLECULE
*****
 25 28 0 0 0
SMALL
GASTEIGER

@<TRIPOS>ATOM
      1 C         139.6772  141.9121  162.1670 C.ar    1  UNL1        0.0701
      2 C         140.9354  142.6509  162.5148 C.ar    1  UNL1        0.0801
      3 N         141.4746  142.5968  163.9135 N.ar    1  UNL1       -0.3277
      4 C         140.7556  141.8038  164.9643 C.ar    1  UNL1        0.0643
      5 C         141.2948  141.7496  166.3630 C.ar    1  UNL1        0.0341
      6 C         140.5758  140.9567  167.4138 C.ar    1  UNL1        0.0772
      7 C         139.3176  140.2179  167.0659 C.ar    1  UNL1        0.1535
      8 F         138.5986  139.4249  168.1168 F       1  UNL1       -0.2029
      9 C         138.7783  140.2720  165.6673 C.ar    1  UNL1        0.0355
     10 C         139.4974  141.0650  164.6165 C.ar    1  UNL1        0.0571
     11 C         138.9581  141.1192  163.2177 C.ar    1  UNL1        0.1996
     12 O         137.6999  140.3804  162.8699 O.2     1  UNL1       -0.2864
     13 N         141.1150  140.9025  168.8125 N.pl3   1  UNL1       -0.3029
     14 C         140.4487  141.6864  169.9040 C.3     1  UNL1        0.1079
     15 C         140.9879  141.6323  171.3027 C.3     1  UNL1        0.0903
     16 N         142.1934  140.7941  171.6099 N.3     1  UNL1       -0.2946
     17 C         142.8597  140.0102  170.5184 C.3     1  UNL1        0.0903
     18 C         142.3205  140.0644  169.1196 C.3     1  UNL1        0.1079
     19 H         141.9112  140.1230  172.3243 H       1  UNL1        0.1233
     20 O         139.5511  140.9311  159.7645 O.co2   1  UNL1       -0.5444
     21 C         139.1379  141.9663  160.7682 C.2     1  UNL1        0.0774
     22 O         138.1855  143.0558  160.3733 O.co2   1  UNL1       -0.5444
     23 C         142.7329  143.3356  164.2613 C.3     1  UNL1        0.0856
     24 C         144.1066  143.3499  164.8635 C.3     1  UNL1        0.0245
     25 C         143.5384  144.6008  164.2616 C.3     1  UNL1        0.0245
@<TRIPOS>UNITY_ATOM_ATTR
20 1
charge -1
@<TRIPOS>BOND
     1    20    21   ar
     2    21    22   ar
     3    21     1    1
     4     1     2   ar
     5     2     3   ar
     6     3    23    1
     7    23    24    1
     8    24    25    1
     9     3     4   ar
    10     4     5   ar
    11     5     6   ar
    12     6    13    1
    13    13    14    1
    14    14    15    1
    15    15    16    1
    16    16    17    1
    17    17    18    1
    18     6     7   ar
    19     7     8    1
    20     7     9   ar
    21     9    10   ar
    22    10    11   ar
    23    11    12    2
    24    11     1   ar
    25    25    23    1
    26    10     4   ar
    27    18    13    1
    28    16    19    1
@<TRIPOS>MOLECULE
*****
 25 28 0 0 0
SMALL
GASTEIGER

@<TRIPOS>ATOM
      1 C         140.6189  140.9937  169.4289 C.ar    1  UNL1        0.0701
      2 C         139.6716  140.5057  168.3732 C.ar    1  UNL1        0.0801
      3 N         139.9900  140.7194  166.9230 N.ar    1  UNL1       -0.3277
      4 C         141.2557  141.4212  166.5285 C.ar    1  UNL1        0.0643
      5 C         141.5740  141.6349  165.0784 C.ar    1  UNL1        0.0341
      6 C         142.8397  142.3367  164.6840 C.ar    1  UNL1        0.0772
      7 C         143.7870  142.8247  165.7397 C.ar    1  UNL1        0.1535
      8 F         145.0527  143.5265  165.3452 F       1  UNL1       -0.2029
      9 C         143.4686  142.6110  167.1898 C.ar    1  UNL1        0.0355
     10 C         142.2030  141.9092  167.5842 C.ar    1  UNL1        0.0571
     11 C         141.8845  141.6955  169.0344 C.ar    1  UNL1        0.1996
     12 O         142.8318  142.1835  170.0901 O.2     1  UNL1       -0.2864
     13 N         143.1581  142.5504  163.2338 N.pl3   1  UNL1       -0.3029
     14 C         144.3700  141.9057  162.6291 C.3     1  UNL1        0.1079
     15 C         144.6884  142.1194  161.1790 C.3     1  UNL1        0.0903
     16 N         143.7950  142.9779  160.3335 N.3     1  UNL1       -0.2946
     17 C         142.5831  143.6227  160.9382 C.3     1  UNL1        0.0903
     18 C         142.2647  143.4089  162.3884 C.3     1  UNL1        0.1079
     19 H         143.4651  142.3930  159.5657 H       1  UNL1        0.1233
     20 O         140.5669  141.8703  171.8741 O.co2   1  UNL1       -0.5444
     21 C         140.3005  140.7799  170.8791 C.2     1  UNL1        0.0774
     22 O         139.7156  139.4758  171.3342 O.co2   1  UNL1       -0.5444
     23 C         139.0427  140.2314  165.8674 C.3     1  UNL1        0.0856
     24 C         138.3674  139.0999  165.1506 C.3     1  UNL1        0.0245
     25 C         138.0772  140.5176  164.7557 C.3     1  UNL1        0.0245
@<TRIPOS>UNITY_ATOM_ATTR
20 1
charge -1
@<TRIPOS>BOND
     1    20    21   ar
     2    21    22   ar
     3    21     1    1
     4     1     2   ar
     5     2     3   ar
     6     3    23    1
     7    23    24    1
     8    24    25    1
     9     3     4   ar
    10     4     5   ar
    11     5     6   ar
    12     6    13    1
    13    13    14    1
    14    14    15    1
    15    15    16    1
    16    16    17    1
    17    17    18    1
    18     6     7   ar
    19     7     8    1
    20     7     9   ar
    21     9    10   ar
    22    10    11   ar
    23    11    12    2
    24    11     1   ar
    25    25    23    1
    26    10     4   ar
    27    18    13    1
    28    16    19    1
@<TRIPOS>MOLECULE
*****
 25 28 0 0 0
SMALL
GASTEIGER

@<TRIPOS>ATOM
      1 C         140.2199  140.0355  162.2317 C.ar    1  UNL1        0.0701
      2 C         139.5713  141.3222  162.6486 C.ar    1  UNL1        0.0801
      3 N         139.7455  141.8306  164.0490 N.ar    1  UNL1       -0.3277
      4 C         140.5683  141.0523  165.0326 C.ar    1  UNL1        0.0643
      5 C         140.7425  141.5607  166.4330 C.ar    1  UNL1        0.0341
      6 C         141.5653  140.7825  167.4165 C.ar    1  UNL1        0.0772
      7 C         142.2139  139.4958  166.9996 C.ar    1  UNL1        0.1535
      8 F         143.0367  138.7175  167.9831 F       1  UNL1       -0.2029
      9 C         142.0397  138.9874  165.5992 C.ar    1  UNL1        0.0355
     10 C         141.2169  139.7656  164.6157 C.ar    1  UNL1        0.0571
     11 C         141.0427  139.2572  163.2152 C.ar    1  UNL1        0.1996
     12 O         141.6912  137.9705  162.7983 O.2     1  UNL1       -0.2864
     13 N         141.7395  141.2909  168.8169 N.pl3   1  UNL1       -0.3029
     14 C         142.6365  142.4633  169.0830 C.3     1  UNL1        0.1079
     15 C         142.8108  142.9717  170.4834 C.3     1  UNL1        0.0903
     16 N         142.0880  142.3077  171.6178 N.3     1  UNL1       -0.2946
     17 C         141.1911  141.1353  171.3517 C.3     1  UNL1        0.0903
     18 C         141.0168  140.6269  169.9512 C.3     1  UNL1        0.1079
     19 H         141.5125  143.0244  172.0600 H       1  UNL1        0.1233
     20 O         139.2046  138.3121  160.5736 O.co2   1  UNL1       -0.5444
     21 C         140.0457  139.5271  160.8313 C.2     1  UNL1        0.0774
     22 O         140.7125  140.2337  159.6885 O.co2   1  UNL1       -0.5444
     23 C         139.0970  143.1173  164.4659 C.3     1  UNL1        0.0856
     24 C         137.8590  143.9244  164.7227 C.3     1  UNL1        0.0245
     25 C         139.2116  144.5387  164.9311 C.3     1  UNL1        0.0245
@<TRIPOS>UNITY_ATOM_ATTR
20 1
charge -1
@<TRIPOS>BOND
     1    20    21   ar
     2    21    22   ar
     3    21     1    1
     4     1     2   ar
     5     2     3   ar
     6     3    23    1
     7    23    24    1
     8    24    25    1
     9     3     4   ar
    10     4     5   ar
    11     5     6   ar
    12     6    13    1
    13    13    14    1
    14    14    15    1
    15    15    16    1
    16    16    17    1
    17    17    18    1
    18     6     7   ar
    19     7     8    1
    20     7     9   ar
    21     9    10   ar
    22    10    11   ar
    23    11    12    2
    24    11     1   ar
    25    25    23    1
    26    10     4   ar
    27    18    13    1
    28    16    19    1
@<TRIPOS>MOLECULE
*****
 25 28 0 0 0
SMALL
GASTEIGER

@<TRIPOS>ATOM
      1 C         142.7310  142.2497  168.7611 C.ar    1  UNL1        0.0701
      2 C         143.3309  142.6262  167.4388 C.ar    1  UNL1        0.0801
      3 N         142.6568  142.2126  166.1643 N.ar    1  UNL1       -0.3277
      4 C         141.3827  141.4224  166.2120 C.ar    1  UNL1        0.0643
      5 C         140.7086  141.0087  164.9375 C.ar    1  UNL1        0.0341
      6 C         139.4345  140.2186  164.9852 C.ar    1  UNL1        0.0772
      7 C         138.8345  139.8420  166.3074 C.ar    1  UNL1        0.1535
      8 F         137.5604  139.0518  166.3551 F       1  UNL1       -0.2029
      9 C         139.5086  140.2557  167.5819 C.ar    1  UNL1        0.0355
     10 C         140.7827  141.0459  167.5342 C.ar    1  UNL1        0.0571
     11 C         141.4569  141.4596  168.8088 C.ar    1  UNL1        0.1996
     12 O         140.8569  141.0830  170.1310 O.2     1  UNL1       -0.2864
     13 N         138.7603  139.8049  163.7107 N.pl3   1  UNL1       -0.3029
     14 C         138.1095  140.8363  162.8374 C.3     1  UNL1        0.1079
     15 C         137.4354  140.4227  161.5629 C.3     1  UNL1        0.0903
     16 N         137.4120  138.9775  161.1616 N.3     1  UNL1       -0.2946
     17 C         138.0628  137.9460  162.0348 C.3     1  UNL1        0.0903
     18 C         138.7369  138.3597  163.3094 C.3     1  UNL1        0.1079
     19 H         137.8635  138.9180  160.2490 H       1  UNL1        0.1233
     20 O         142.5828  143.0000  171.2440 O.co2   1  UNL1       -0.5444
     21 C         143.4052  142.6634  170.0356 C.2     1  UNL1        0.0774
     22 O         144.9017  142.7405  170.1016 O.co2   1  UNL1       -0.5444
     23 C         143.2568  142.5891  164.8421 C.3     1  UNL1        0.0856
     24 C         143.5894  143.6316  163.8163 C.3     1  UNL1        0.0245
     25 C         143.9633  142.1987  163.5778 C.3     1  UNL1        0.0245
@<TRIPOS>UNITY_ATOM_ATTR
20 1
charge -1
@<TRIPOS>BOND
     1    20    21   ar
     2    21    22   ar
     3    21     1    1
     4     1     2   ar
     5     2     3   ar
     6     3    23    1
     7    23    24    1
     8    24    25    1
     9     3     4   ar
    10     4     5   ar
    11     5     6   ar
    12     6    13    1
    13    13    14    1
    14    14    15    1
    15    15    16    1
    16    16    17    1
    17    17    18    1
    18     6     7   ar
    19     7     8    1
    20     7     9   ar
    21     9    10   ar
    22    10    11   ar
    23    11    12    2
    24    11     1   ar
    25    25    23    1
    26    10     4   ar
    27    18    13    1
    28    16    19    1
@<TRIPOS>MOLECULE
*****
 25 28 0 0 0
SMALL
GASTEIGER

@<TRIPOS>ATOM
      1 C         141.6991  142.2135  169.1251 C.ar    1  UNL1        0.0701
      2 C         140.9230  143.1468  168.2438 C.ar    1  UNL1        0.0801
      3 N         140.5550  142.7305  166.8506 N.ar    1  UNL1       -0.3277
      4 C         140.9630  141.3809  166.3386 C.ar    1  UNL1        0.0643
      5 C         140.5950  140.9646  164.9453 C.ar    1  UNL1        0.0341
      6 C         141.0031  139.6150  164.4334 C.ar    1  UNL1        0.0772
      7 C         141.7791  138.6817  165.3147 C.ar    1  UNL1        0.1535
      8 F         142.1872  137.3321  164.8027 F       1  UNL1       -0.2029
      9 C         142.1471  139.0980  166.7080 C.ar    1  UNL1        0.0355
     10 C         141.7391  140.4476  167.2199 C.ar    1  UNL1        0.0571
     11 C         142.1071  140.8639  168.6132 C.ar    1  UNL1        0.1996
     12 O         142.8832  139.9307  169.4945 O.2     1  UNL1       -0.2864
     13 N         140.6351  139.1986  163.0400 N.pl3   1  UNL1       -0.3029
     14 C         139.2533  138.6926  162.7488 C.3     1  UNL1        0.1079
     15 C         138.8853  138.2763  161.3555 C.3     1  UNL1        0.0903
     16 N         139.8990  138.3659  160.2535 N.3     1  UNL1       -0.2946
     17 C         141.2807  138.8719  160.5447 C.3     1  UNL1        0.0903
     18 C         141.6487  139.2883  161.9381 C.3     1  UNL1        0.1079
     19 H         139.5050  138.9794  159.5402 H       1  UNL1        0.1233
     20 O         141.3454  142.0388  171.6931 O.co2   1  UNL1       -0.5444
     21 C         142.0671  142.6299  170.5185 C.2     1  UNL1        0.0774
     22 O         143.1567  143.6373  170.7370 O.co2   1  UNL1       -0.5444
     23 C         139.7789  143.6638  165.9692 C.3     1  UNL1        0.0856
     24 C         139.6176  144.3846  164.6638 C.3     1  UNL1        0.0245
     25 C         138.5961  144.5593  165.7482 C.3     1  UNL1        0.0245
@<TRIPOS>UNITY_ATOM_ATTR
20 1
charge -1
@<TRIPOS>BOND
     1    20    21   ar
     2    21    22   ar
     3    21     1    1
     4     1     2   ar
     5     2     3   ar
     6     3    23    1
     7    23    24    1
     8    24    25    1
     9     3     4   ar
    10     4     5   ar
    11     5     6   ar
    12     6    13    1
    13    13    14    1
    14    14    15    1
    15    15    16    1
    16    16    17    1
    17    17    18    1
    18     6     7   ar
    19     7     8    1
    20     7     9   ar
    21     9    10   ar
    22    10    11   ar
    23    11    12    2
    24    11     1   ar
    25    25    23    1
    26    10     4   ar
    27    18    13    1
    28    16    19    1
