@<TRIPOS>MOLECULE
*****
 29 32 0 0 0
SMALL
GASTEIGER

@<TRIPOS>ATOM
      1 C         141.8783  140.1997  164.6218 C.ar    1  UNL1        0.0344
      2 C         141.3110  141.1022  163.5665 C.ar    1  UNL1        0.0061
      3 C         141.6016  140.8386  162.1188 C.ar    1  UNL1        0.0370
      4 C         142.4595  139.6724  161.7263 C.ar    1  UNL1        0.1386
      5 C         143.0269  138.7699  162.7815 C.ar    1  UNL1        0.0370
      6 C         142.7363  139.0335  164.2292 C.ar    1  UNL1        0.0061
      7 N         140.3555  139.8894  166.7038 N.ar    1  UNL1       -0.2806
      8 C         141.5878  140.4633  166.0696 C.ar    1  UNL1        0.1459
      9 N         142.5295  141.3007  166.8832 N.ar    1  UNL1       -0.2280
     10 C         142.2389  141.5643  168.3310 C.ar    1  UNL1        0.0875
     11 C         143.1806  142.4016  169.1446 C.ar    1  UNL1        0.0193
     12 C         142.8900  142.6652  170.5924 C.ar    1  UNL1        0.0015
     13 C         141.6577  142.0914  171.2265 C.ar    1  UNL1        0.0003
     14 C         140.7160  141.2540  170.4130 C.ar    1  UNL1        0.0063
     15 C         141.0066  140.9904  168.9652 C.ar    1  UNL1        0.0739
     16 C         140.0649  140.1530  168.1515 C.ar    1  UNL1        0.2633
     17 O         138.8326  139.5792  168.7857 O.2     1  UNL1       -0.2669
     18 C         138.1876  139.6721  165.2884 C.3     1  UNL1        0.0266
     19 C         139.4138  139.0520  165.8901 C.3     1  UNL1        0.1105
     20 O         142.7501  139.4088  160.2784 O.3     1  UNL1       -0.4754
     21 C         143.7971  140.2120  159.5653 C.3     1  UNL1        0.2068
     22 C         143.7003  141.7085  159.5313 C.3     1  UNL1        0.0646
     23 C         144.7258  142.5427  160.2402 C.3     1  UNL1        0.0759
     24 N         144.6632  142.7018  161.7304 N.3     1  UNL1       -0.2726
     25 C         143.8845  143.8341  162.3318 C.3     1  UNL1        0.0721
     26 C         143.8219  143.9932  163.8220 C.3     1  UNL1        0.0174
     27 C         144.5380  143.0200  164.7109 C.3     1  UNL1        0.0029
     28 C         145.3167  141.8877  164.1096 C.3     1  UNL1        0.0174
     29 C         145.3793  141.7286  162.6193 C.3     1  UNL1        0.0721
@<TRIPOS>BOND
     1    18    19    1
     2    19     7    1
     3     7     8   ar
     4     8     1    1
     5     1     2   ar
     6     2     3   ar
     7     3     4   ar
     8     4    20    1
     9    20    21    1
    10    21    22    1
    11    22    23    1
    12    23    24    1
    13    24    25    1
    14    25    26    1
    15    26    27    1
    16    27    28    1
    17    28    29    1
    18     4     5   ar
    19     5     6   ar
    20     8     9   ar
    21     9    10   ar
    22    10    11   ar
    23    11    12   ar
    24    12    13   ar
    25    13    14   ar
    26    14    15   ar
    27    15    16   ar
    28    16    17    2
    29    16     7   ar
    30     6     1   ar
    31    15    10   ar
    32    29    24    1
@<TRIPOS>MOLECULE
*****
 29 32 0 0 0
SMALL
GASTEIGER

@<TRIPOS>ATOM
      1 C         142.4061  142.3461  164.4409 C.ar    1  UNL1        0.0344
      2 C         143.3653  143.4609  164.1458 C.ar    1  UNL1        0.0061
      3 C         143.5964  143.8960  162.7290 C.ar    1  UNL1        0.0370
      4 C         142.8683  143.2164  161.6075 C.ar    1  UNL1        0.1386
      5 C         141.9090  142.1016  161.9026 C.ar    1  UNL1        0.0370
      6 C         141.6780  141.6665  163.3194 C.ar    1  UNL1        0.0061
      7 N         142.7542  140.6174  166.3490 N.ar    1  UNL1       -0.2806
      8 C         142.1749  141.9109  165.8577 C.ar    1  UNL1        0.1459
      9 N         141.3646  142.7692  166.7832 N.ar    1  UNL1       -0.2280
     10 C         141.1334  142.3340  168.2001 C.ar    1  UNL1        0.0875
     11 C         140.3231  143.1923  169.1256 C.ar    1  UNL1        0.0193
     12 C         140.0920  142.7570  170.5423 C.ar    1  UNL1        0.0015
     13 C         140.6712  141.4635  171.0335 C.ar    1  UNL1        0.0003
     14 C         141.4816  140.6052  170.1080 C.ar    1  UNL1        0.0063
     15 C         141.7127  141.0405  168.6913 C.ar    1  UNL1        0.0739
     16 C         142.5231  140.1822  167.7657 C.ar    1  UNL1        0.2633
     17 O         143.1024  138.8887  168.2569 O.2     1  UNL1       -0.2669
     18 C         142.9510  138.5398  164.8013 C.3     1  UNL1        0.0266
     19 C         143.5646  139.7591  165.4234 C.3     1  UNL1        0.1105
     20 O         143.0994  143.6516  160.1907 O.3     1  UNL1       -0.4754
     21 C         141.9975  144.3180  159.4215 C.3     1  UNL1        0.2068
     22 C         141.0014  145.1829  160.1355 C.3     1  UNL1        0.0646
     23 C         139.6304  144.6549  160.4383 C.3     1  UNL1        0.0759
     24 N         139.2417  144.3454  161.8536 N.3     1  UNL1       -0.2726
     25 C         139.8840  145.0883  162.9874 C.3     1  UNL1        0.0721
     26 C         139.4952  144.7788  164.4027 C.3     1  UNL1        0.0174
     27 C         138.4641  143.7264  164.6842 C.3     1  UNL1        0.0029
     28 C         137.8218  142.9835  163.5504 C.3     1  UNL1        0.0174
     29 C         138.2106  143.2929  162.1351 C.3     1  UNL1        0.0721
@<TRIPOS>BOND
     1    18    19    1
     2    19     7    1
     3     7     8   ar
     4     8     1    1
     5     1     2   ar
     6     2     3   ar
     7     3     4   ar
     8     4    20    1
     9    20    21    1
    10    21    22    1
    11    22    23    1
    12    23    24    1
    13    24    25    1
    14    25    26    1
    15    26    27    1
    16    27    28    1
    17    28    29    1
    18     4     5   ar
    19     5     6   ar
    20     8     9   ar
    21     9    10   ar
    22    10    11   ar
    23    11    12   ar
    24    12    13   ar
    25    13    14   ar
    26    14    15   ar
    27    15    16   ar
    28    16    17    2
    29    16     7   ar
    30     6     1   ar
    31    15    10   ar
    32    29    24    1
@<TRIPOS>MOLECULE
*****
 29 32 0 0 0
SMALL
GASTEIGER

@<TRIPOS>ATOM
      1 C         140.4296  139.3815  164.6990 C.ar    1  UNL1        0.0344
      2 C         140.3252  140.4555  163.6571 C.ar    1  UNL1        0.0061
      3 C         140.2716  140.0879  162.2038 C.ar    1  UNL1        0.0370
      4 C         140.3223  138.6463  161.7925 C.ar    1  UNL1        0.1386
      5 C         140.4266  137.5723  162.8344 C.ar    1  UNL1        0.0370
      6 C         140.4803  137.9399  164.2876 C.ar    1  UNL1        0.0061
      7 N         139.2847  139.5278  167.0266 N.ar    1  UNL1       -0.2806
      8 C         140.4832  139.7491  166.1523 C.ar    1  UNL1        0.1459
      9 N         141.7354  140.3380  166.7312 N.ar    1  UNL1       -0.2280
     10 C         141.7891  140.7056  168.1846 C.ar    1  UNL1        0.0875
     11 C         143.0413  141.2944  168.7635 C.ar    1  UNL1        0.0193
     12 C         143.0949  141.6620  170.2167 C.ar    1  UNL1        0.0015
     13 C         141.8963  141.4406  171.0911 C.ar    1  UNL1        0.0003
     14 C         140.6441  140.8518  170.5121 C.ar    1  UNL1        0.0063
     15 C         140.5905  140.4842  169.0589 C.ar    1  UNL1        0.0739
     16 C         139.3383  139.8953  168.4799 C.ar    1  UNL1        0.2633
     17 O         138.1397  139.6740  169.3542 O.2     1  UNL1       -0.2669
     18 C         137.6889  137.5023  166.7087 C.3     1  UNL1        0.0266
     19 C         138.0324  138.9389  166.4476 C.3     1  UNL1        0.1105
     20 O         140.2686  138.2787  160.3392 O.3     1  UNL1       -0.4754
     21 C         141.4739  138.4807  159.4695 C.3     1  UNL1        0.2068
     22 C         142.8406  138.1541  159.9942 C.3     1  UNL1        0.0646
     23 C         143.8292  139.2534  160.2478 C.3     1  UNL1        0.0759
     24 N         144.0757  139.7322  161.6477 N.3     1  UNL1       -0.2726
     25 C         144.4932  141.1521  161.8922 C.3     1  UNL1        0.0721
     26 C         144.7397  141.6309  163.2922 C.3     1  UNL1        0.0174
     27 C         144.5688  140.6899  164.4477 C.3     1  UNL1        0.0029
     28 C         144.1513  139.2700  164.2033 C.3     1  UNL1        0.0174
     29 C         143.9048  138.7912  162.8033 C.3     1  UNL1        0.0721
@<TRIPOS>BOND
     1    18    19    1
     2    19     7    1
     3     7     8   ar
     4     8     1    1
     5     1     2   ar
     6     2     3   ar
     7     3     4   ar
     8     4    20    1
     9    20    21    1
    10    21    22    1
    11    22    23    1
    12    23    24    1
    13    24    25    1
    14    25    26    1
    15    26    27    1
    16    27    28    1
    17    28    29    1
    18     4     5   ar
    19     5     6   ar
    20     8     9   ar
    21     9    10   ar
    22    10    11   ar
    23    11    12   ar
    24    12    13   ar
    25    13    14   ar
    26    14    15   ar
    27    15    16   ar
    28    16    17    2
    29    16     7   ar
    30     6     1   ar
    31    15    10   ar
    32    29    24    1
@<TRIPOS>MOLECULE
*****
 29 32 0 0 0
SMALL
GASTEIGER

@<TRIPOS>ATOM
      1 C         141.0085  141.9090  164.2543 C.ar    1  UNL1        0.0344
      2 C         140.2759  143.0992  163.7097 C.ar    1  UNL1        0.0061
      3 C         140.0287  143.2173  162.2350 C.ar    1  UNL1        0.0370
      4 C         140.5141  142.1453  161.3049 C.ar    1  UNL1        0.1386
      5 C         141.2468  140.9551  161.8495 C.ar    1  UNL1        0.0370
      6 C         141.4940  140.8370  163.3242 C.ar    1  UNL1        0.0061
      7 N         142.5104  142.3552  166.3269 N.ar    1  UNL1       -0.2806
      8 C         141.2558  141.7908  165.7291 C.ar    1  UNL1        0.1459
      9 N         140.2484  141.1081  166.6061 N.ar    1  UNL1       -0.2280
     10 C         140.4956  140.9899  168.0809 C.ar    1  UNL1        0.0875
     11 C         139.4883  140.3072  168.9579 C.ar    1  UNL1        0.0193
     12 C         139.7355  140.1890  170.4326 C.ar    1  UNL1        0.0015
     13 C         140.9901  140.7535  171.0304 C.ar    1  UNL1        0.0003
     14 C         141.9975  141.4362  170.1534 C.ar    1  UNL1        0.0063
     15 C         141.7502  141.5544  168.6787 C.ar    1  UNL1        0.0739
     16 C         142.7576  142.2371  167.8016 C.ar    1  UNL1        0.2633
     17 O         144.0122  142.8015  168.3993 O.2     1  UNL1       -0.2669
     18 C         144.6089  142.2402  164.7994 C.3     1  UNL1        0.0266
     19 C         143.5178  143.0379  165.4498 C.3     1  UNL1        0.1105
     20 O         140.2669  142.2635  159.8300 O.3     1  UNL1       -0.4754
     21 C         138.9656  141.7969  159.2480 C.3     1  UNL1        0.2068
     22 C         138.5932  140.3453  159.3117 C.3     1  UNL1        0.0646
     23 C         137.5393  139.8829  160.2737 C.3     1  UNL1        0.0759
     24 N         137.9214  139.4750  161.6657 N.3     1  UNL1       -0.2726
     25 C         138.5771  138.1472  161.9049 C.3     1  UNL1        0.0721
     26 C         138.9592  137.7393  163.2968 C.3     1  UNL1        0.0174
     27 C         138.6858  138.6592  164.4497 C.3     1  UNL1        0.0029
     28 C         138.0302  139.9870  164.2105 C.3     1  UNL1        0.0174
     29 C         137.6480  140.3949  162.8185 C.3     1  UNL1        0.0721
@<TRIPOS>BOND
     1    18    19    1
     2    19     7    1
     3     7     8   ar
     4     8     1    1
     5     1     2   ar
     6     2     3   ar
     7     3     4   ar
     8     4    20    1
     9    20    21    1
    10    21    22    1
    11    22    23    1
    12    23    24    1
    13    24    25    1
    14    25    26    1
    15    26    27    1
    16    27    28    1
    17    28    29    1
    18     4     5   ar
    19     5     6   ar
    20     8     9   ar
    21     9    10   ar
    22    10    11   ar
    23    11    12   ar
    24    12    13   ar
    25    13    14   ar
    26    14    15   ar
    27    15    16   ar
    28    16    17    2
    29    16     7   ar
    30     6     1   ar
    31    15    10   ar
    32    29    24    1
@<TRIPOS>MOLECULE
*****
 29 32 0 0 0
SMALL
GASTEIGER

@<TRIPOS>ATOM
      1 C         140.3197  141.3050  164.1997 C.ar    1  UNL1        0.0344
      2 C         139.3502  142.2991  163.6325 C.ar    1  UNL1        0.0061
      3 C         139.1882  142.4250  162.1466 C.ar    1  UNL1        0.0370
      4 C         139.9958  141.5568  161.2279 C.ar    1  UNL1        0.1386
      5 C         140.9653  140.5627  161.7951 C.ar    1  UNL1        0.0370
      6 C         141.1273  140.4368  163.2810 C.ar    1  UNL1        0.0061
      7 N         139.5117  140.3543  166.4786 N.ar    1  UNL1       -0.2806
      8 C         140.4817  141.1791  165.6856 C.ar    1  UNL1        0.1459
      9 N         141.6137  141.8780  166.3785 N.ar    1  UNL1       -0.2280
     10 C         141.7757  141.7521  167.8645 C.ar    1  UNL1        0.0875
     11 C         142.9077  142.4510  168.5574 C.ar    1  UNL1        0.0193
     12 C         143.0696  142.3250  170.0433 C.ar    1  UNL1        0.0015
     13 C         142.0996  141.5002  170.8362 C.ar    1  UNL1        0.0003
     14 C         140.9677  140.8013  170.1433 C.ar    1  UNL1        0.0063
     15 C         140.8057  140.9273  168.6574 C.ar    1  UNL1        0.0739
     16 C         139.6737  140.2283  167.9644 C.ar    1  UNL1        0.2633
     17 O         138.7037  139.4035  168.7574 O.2     1  UNL1       -0.2669
     18 C         138.4900  138.1969  165.4530 C.3     1  UNL1        0.0266
     19 C         138.3797  139.6554  165.7856 C.3     1  UNL1        0.1105
     20 O         139.8338  141.6827  159.7420 O.3     1  UNL1       -0.4754
     21 C         139.7237  143.0394  159.1118 C.3     1  UNL1        0.2068
     22 C         140.9597  143.8497  158.8554 C.3     1  UNL1        0.0646
     23 C         141.3073  144.9944  159.7605 C.3     1  UNL1        0.0759
     24 N         141.7934  144.7277  161.1542 N.3     1  UNL1       -0.2726
     25 C         141.1686  145.4418  162.3160 C.3     1  UNL1        0.0721
     26 C         141.6548  145.1751  163.7097 C.3     1  UNL1        0.0174
     27 C         142.7657  144.1943  163.9417 C.3     1  UNL1        0.0029
     28 C         143.3906  143.4802  162.7800 C.3     1  UNL1        0.0174
     29 C         142.9044  143.7469  161.3862 C.3     1  UNL1        0.0721
@<TRIPOS>BOND
     1    18    19    1
     2    19     7    1
     3     7     8   ar
     4     8     1    1
     5     1     2   ar
     6     2     3   ar
     7     3     4   ar
     8     4    20    1
     9    20    21    1
    10    21    22    1
    11    22    23    1
    12    23    24    1
    13    24    25    1
    14    25    26    1
    15    26    27    1
    16    27    28    1
    17    28    29    1
    18     4     5   ar
    19     5     6   ar
    20     8     9   ar
    21     9    10   ar
    22    10    11   ar
    23    11    12   ar
    24    12    13   ar
    25    13    14   ar
    26    14    15   ar
    27    15    16   ar
    28    16    17    2
    29    16     7   ar
    30     6     1   ar
    31    15    10   ar
    32    29    24    1
@<TRIPOS>MOLECULE
*****
 29 32 0 0 0
SMALL
GASTEIGER

@<TRIPOS>ATOM
      1 C         142.1416  140.0569  163.7813 C.ar    1  UNL1        0.0344
      2 C         141.8443  141.0119  162.6636 C.ar    1  UNL1        0.0061
      3 C         142.0757  140.5967  161.2409 C.ar    1  UNL1        0.0370
      4 C         142.6044  139.2265  160.9360 C.ar    1  UNL1        0.1386
      5 C         142.9016  138.2714  162.0538 C.ar    1  UNL1        0.0370
      6 C         142.6702  138.6866  163.4764 C.ar    1  UNL1        0.0061
      7 N         142.8837  141.3870  165.8862 N.ar    1  UNL1       -0.2806
      8 C         141.9102  140.4720  165.2041 C.ar    1  UNL1        0.1459
      9 N         140.7054  139.9722  165.9447 N.ar    1  UNL1       -0.2280
     10 C         140.4740  140.3874  167.3675 C.ar    1  UNL1        0.0875
     11 C         139.2692  139.8876  168.1081 C.ar    1  UNL1        0.0193
     12 C         139.0379  140.3028  169.5308 C.ar    1  UNL1        0.0015
     13 C         140.0114  141.2177  170.2129 C.ar    1  UNL1        0.0003
     14 C         141.2162  141.7175  169.4722 C.ar    1  UNL1        0.0063
     15 C         141.4475  141.3023  168.0496 C.ar    1  UNL1        0.0739
     16 C         142.6524  141.8021  167.3088 C.ar    1  UNL1        0.2633
     17 O         143.6259  142.7171  167.9909 O.2     1  UNL1       -0.2669
     18 C         144.1243  143.2973  164.6364 C.3     1  UNL1        0.0266
     19 C         144.0886  141.8867  165.1454 C.3     1  UNL1        0.1105
     20 O         142.8357  138.8113  159.5132 O.3     1  UNL1       -0.4754
     21 C         141.8183  139.1397  158.4612 C.3     1  UNL1        0.2068
     22 C         140.4743  138.4742  158.4840 C.3     1  UNL1        0.0646
     23 C         139.2711  139.2299  158.9650 C.3     1  UNL1        0.0759
     24 N         138.9450  139.2680  160.4286 N.3     1  UNL1       -0.2726
     25 C         139.2663  138.0897  161.2995 C.3     1  UNL1        0.0721
     26 C         138.9402  138.1277  162.7631 C.3     1  UNL1        0.0174
     27 C         138.2927  139.3440  163.3559 C.3     1  UNL1        0.0029
     28 C         137.9714  140.5223  162.4851 C.3     1  UNL1        0.0174
     29 C         138.2975  140.4843  161.0214 C.3     1  UNL1        0.0721
@<TRIPOS>BOND
     1    18    19    1
     2    19     7    1
     3     7     8   ar
     4     8     1    1
     5     1     2   ar
     6     2     3   ar
     7     3     4   ar
     8     4    20    1
     9    20    21    1
    10    21    22    1
    11    22    23    1
    12    23    24    1
    13    24    25    1
    14    25    26    1
    15    26    27    1
    16    27    28    1
    17    28    29    1
    18     4     5   ar
    19     5     6   ar
    20     8     9   ar
    21     9    10   ar
    22    10    11   ar
    23    11    12   ar
    24    12    13   ar
    25    13    14   ar
    26    14    15   ar
    27    15    16   ar
    28    16    17    2
    29    16     7   ar
    30     6     1   ar
    31    15    10   ar
    32    29    24    1
@<TRIPOS>MOLECULE
*****
 29 32 0 0 0
SMALL
GASTEIGER

@<TRIPOS>ATOM
      1 C         140.6371  141.9082  164.0319 C.ar    1  UNL1        0.0344
      2 C         140.1074  143.2486  163.6164 C.ar    1  UNL1        0.0061
      3 C         139.9577  143.5775  162.1606 C.ar    1  UNL1        0.0370
      4 C         140.3378  142.5659  161.1203 C.ar    1  UNL1        0.1386
      5 C         140.8674  141.2255  161.5358 C.ar    1  UNL1        0.0370
      6 C         141.0171  140.8966  162.9916 C.ar    1  UNL1        0.0061
      7 N         139.7659  140.7184  166.1710 N.ar    1  UNL1       -0.2806
      8 C         140.7867  141.5793  165.4878 C.ar    1  UNL1        0.1459
      9 N         141.9572  142.1114  166.2604 N.ar    1  UNL1       -0.2280
     10 C         142.1068  141.7825  167.7163 C.ar    1  UNL1        0.0875
     11 C         143.2772  142.3145  168.4889 C.ar    1  UNL1        0.0193
     12 C         143.4269  141.9856  169.9447 C.ar    1  UNL1        0.0015
     13 C         142.4061  141.1247  170.6279 C.ar    1  UNL1        0.0003
     14 C         141.2357  140.5926  169.8553 C.ar    1  UNL1        0.0063
     15 C         141.0860  140.9215  168.3995 C.ar    1  UNL1        0.0739
     16 C         139.9156  140.3894  167.6268 C.ar    1  UNL1        0.2633
     17 O         138.8948  139.5285  168.3099 O.2     1  UNL1       -0.2669
     18 C         138.5820  138.7556  164.9478 C.3     1  UNL1        0.0266
     19 C         138.5955  140.1863  165.3983 C.3     1  UNL1        0.1105
     20 O         140.1881  142.8948  159.6644 O.3     1  UNL1       -0.4754
     21 C         141.3551  142.7354  158.7357 C.3     1  UNL1        0.2068
     22 C         142.6023  143.5397  158.9537 C.3     1  UNL1        0.0646
     23 C         143.8454  142.8727  159.4636 C.3     1  UNL1        0.0759
     24 N         144.0462  142.6879  160.9385 N.3     1  UNL1       -0.2726
     25 C         144.5738  141.3867  161.4664 C.3     1  UNL1        0.0721
     26 C         144.7747  141.2019  162.9414 C.3     1  UNL1        0.0174
     27 C         144.4480  142.3183  163.8884 C.3     1  UNL1        0.0029
     28 C         143.9204  143.6195  163.3606 C.3     1  UNL1        0.0174
     29 C         143.7195  143.8043  161.8856 C.3     1  UNL1        0.0721
@<TRIPOS>BOND
     1    18    19    1
     2    19     7    1
     3     7     8   ar
     4     8     1    1
     5     1     2   ar
     6     2     3   ar
     7     3     4   ar
     8     4    20    1
     9    20    21    1
    10    21    22    1
    11    22    23    1
    12    23    24    1
    13    24    25    1
    14    25    26    1
    15    26    27    1
    16    27    28    1
    17    28    29    1
    18     4     5   ar
    19     5     6   ar
    20     8     9   ar
    21     9    10   ar
    22    10    11   ar
    23    11    12   ar
    24    12    13   ar
    25    13    14   ar
    26    14    15   ar
    27    15    16   ar
    28    16    17    2
    29    16     7   ar
    30     6     1   ar
    31    15    10   ar
    32    29    24    1
@<TRIPOS>MOLECULE
*****
 29 32 0 0 0
SMALL
GASTEIGER

@<TRIPOS>ATOM
      1 C         141.5366  139.8815  164.4681 C.ar    1  UNL1        0.0344
      2 C         141.3408  141.0428  163.5392 C.ar    1  UNL1        0.0061
      3 C         141.7320  140.9230  162.0961 C.ar    1  UNL1        0.0370
      4 C         142.3190  139.6420  161.5819 C.ar    1  UNL1        0.1386
      5 C         142.5148  138.4807  162.5109 C.ar    1  UNL1        0.0370
      6 C         142.1236  138.6004  163.9540 C.ar    1  UNL1        0.0061
      7 N         139.7977  139.5237  166.3651 N.ar    1  UNL1       -0.2806
      8 C         141.1454  140.0012  165.9113 C.ar    1  UNL1        0.1459
      9 N         142.1017  140.5983  166.9006 N.ar    1  UNL1       -0.2280
     10 C         141.7105  140.7181  168.3438 C.ar    1  UNL1        0.0875
     11 C         142.6669  141.3152  169.3330 C.ar    1  UNL1        0.0193
     12 C         142.2756  141.4349  170.7761 C.ar    1  UNL1        0.0015
     13 C         140.9280  140.9574  171.2299 C.ar    1  UNL1        0.0003
     14 C         139.9717  140.3603  170.2407 C.ar    1  UNL1        0.0063
     15 C         140.3629  140.2406  168.7976 C.ar    1  UNL1        0.0739
     16 C         139.4065  139.6434  167.8082 C.ar    1  UNL1        0.2633
     17 O         138.0589  139.1659  168.2620 O.2     1  UNL1       -0.2669
     18 C         138.8284  137.4443  165.1458 C.3     1  UNL1        0.0266
     19 C         138.8414  138.9265  165.3758 C.3     1  UNL1        0.1105
     20 O         142.7102  139.5223  160.1388 O.3     1  UNL1       -0.4754
     21 C         142.0351  140.3747  159.1055 C.3     1  UNL1        0.2068
     22 C         140.6922  139.9785  158.5675 C.3     1  UNL1        0.0646
     23 C         139.5175  140.8967  158.7324 C.3     1  UNL1        0.0759
     24 N         138.8484  141.0259  160.0686 N.3     1  UNL1       -0.2726
     25 C         138.5866  142.3845  160.6481 C.3     1  UNL1        0.0721
     26 C         137.9175  142.5138  161.9843 C.3     1  UNL1        0.0174
     27 C         137.5102  141.2844  162.7412 C.3     1  UNL1        0.0029
     28 C         137.7720  139.9259  162.1618 C.3     1  UNL1        0.0174
     29 C         138.4411  139.7966  160.8255 C.3     1  UNL1        0.0721
@<TRIPOS>BOND
     1    18    19    1
     2    19     7    1
     3     7     8   ar
     4     8     1    1
     5     1     2   ar
     6     2     3   ar
     7     3     4   ar
     8     4    20    1
     9    20    21    1
    10    21    22    1
    11    22    23    1
    12    23    24    1
    13    24    25    1
    14    25    26    1
    15    26    27    1
    16    27    28    1
    17    28    29    1
    18     4     5   ar
    19     5     6   ar
    20     8     9   ar
    21     9    10   ar
    22    10    11   ar
    23    11    12   ar
    24    12    13   ar
    25    13    14   ar
    26    14    15   ar
    27    15    16   ar
    28    16    17    2
    29    16     7   ar
    30     6     1   ar
    31    15    10   ar
    32    29    24    1
@<TRIPOS>MOLECULE
*****
 29 32 0 0 0
SMALL
GASTEIGER

@<TRIPOS>ATOM
      1 C         140.2780  142.9692  164.4637 C.ar    1  UNL1        0.0344
      2 C         141.0720  142.6351  163.2358 C.ar    1  UNL1        0.0061
      3 C         140.8556  143.4089  161.9691 C.ar    1  UNL1        0.0370
      4 C         139.8451  144.5167  161.9304 C.ar    1  UNL1        0.1386
      5 C         139.0510  144.8508  163.1583 C.ar    1  UNL1        0.0370
      6 C         139.2675  144.0771  164.4250 C.ar    1  UNL1        0.0061
      7 N         139.5405  141.1034  166.1144 N.ar    1  UNL1       -0.2806
      8 C         140.4944  142.1954  165.7304 C.ar    1  UNL1        0.1459
      9 N         141.6647  142.5136  166.6130 N.ar    1  UNL1       -0.2280
     10 C         141.8812  141.7399  167.8797 C.ar    1  UNL1        0.0875
     11 C         143.0515  142.0581  168.7623 C.ar    1  UNL1        0.0193
     12 C         143.2679  141.2843  170.0289 C.ar    1  UNL1        0.0015
     13 C         142.3139  140.1923  170.4130 C.ar    1  UNL1        0.0003
     14 C         141.1436  139.8741  169.5304 C.ar    1  UNL1        0.0063
     15 C         140.9272  140.6478  168.2637 C.ar    1  UNL1        0.0739
     16 C         139.7568  140.3296  167.3811 C.ar    1  UNL1        0.2633
     17 O         138.8029  139.2376  167.7651 O.2     1  UNL1       -0.2669
     18 C         138.4840  139.7073  164.1948 C.3     1  UNL1        0.0266
     19 C         138.3701  140.7852  165.2318 C.3     1  UNL1        0.1105
     20 O         139.6287  145.2905  160.6637 O.3     1  UNL1       -0.4754
     21 C         140.7243  145.3802  159.6431 C.3     1  UNL1        0.2068
     22 C         140.6072  144.6301  158.3494 C.3     1  UNL1        0.0646
     23 C         139.5188  143.6142  158.1673 C.3     1  UNL1        0.0759
     24 N         139.5542  142.3301  158.9417 N.3     1  UNL1       -0.2726
     25 C         140.7775  141.4629  158.9007 C.3     1  UNL1        0.0721
     26 C         140.8129  140.1788  159.6751 C.3     1  UNL1        0.0174
     27 C         139.6250  139.7618  160.4906 C.3     1  UNL1        0.0029
     28 C         138.4017  140.6288  160.5315 C.3     1  UNL1        0.0174
     29 C         138.3662  141.9130  159.7571 C.3     1  UNL1        0.0721
@<TRIPOS>BOND
     1    18    19    1
     2    19     7    1
     3     7     8   ar
     4     8     1    1
     5     1     2   ar
     6     2     3   ar
     7     3     4   ar
     8     4    20    1
     9    20    21    1
    10    21    22    1
    11    22    23    1
    12    23    24    1
    13    24    25    1
    14    25    26    1
    15    26    27    1
    16    27    28    1
    17    28    29    1
    18     4     5   ar
    19     5     6   ar
    20     8     9   ar
    21     9    10   ar
    22    10    11   ar
    23    11    12   ar
    24    12    13   ar
    25    13    14   ar
    26    14    15   ar
    27    15    16   ar
    28    16    17    2
    29    16     7   ar
    30     6     1   ar
    31    15    10   ar
    32    29    24    1
