@<TRIPOS>MOLECULE
*****
 33 37 0 0 0
SMALL
GASTEIGER

@<TRIPOS>ATOM
      1 C         143.5973  143.1371  162.9784 C.3     1  UNL1        0.0704
      2 C         144.5622  142.0660  163.3927 C.3     1  UNL1        0.0087
      3 C         145.1965  142.4879  164.6849 C.3     1  UNL1        0.0005
      4 C         144.6235  143.8198  165.0693 C.3     1  UNL1        0.0005
      5 C         143.6351  144.2210  164.0147 C.3     1  UNL1        0.0095
      6 C         142.6702  145.2921  163.6005 C.3     1  UNL1        0.0162
      7 C         142.0360  144.8702  162.3083 C.3     1  UNL1        0.0545
      8 C         142.6090  143.5383  161.9238 C.3     1  UNL1        0.0243
      9 O         144.4542  142.1325  160.7410 O.2     1  UNL1       -0.2749
     10 C         143.5595  142.0532  161.9423 C.2     1  UNL1        0.2250
     11 N         142.6269  140.8900  162.1074 N.am    1  UNL1       -0.2750
     12 C         142.5890  139.8061  161.0712 C.3     1  UNL1        0.1000
     13 C         141.6565  138.6429  161.2363 C.3     1  UNL1        0.0670
     14 C         140.7617  138.5637  162.4376 C.ar    1  UNL1        0.0583
     15 N         139.8291  137.4004  162.6027 N.ar    1  UNL1       -0.2484
     16 C         138.9343  137.3212  163.8040 C.ar    1  UNL1        0.1023
     17 C         138.9722  138.4051  164.8402 C.ar    1  UNL1        0.0902
     18 C         139.9047  139.5683  164.6751 C.ar    1  UNL1        0.0040
     19 C         140.7995  139.6476  163.4738 C.ar    1  UNL1        0.0113
     20 C         141.7321  140.8107  163.3086 C.3     1  UNL1        0.1213
     21 C         138.0774  138.3259  166.0415 C.3     1  UNL1        0.4200
     22 F         137.1826  138.2466  167.2428 F       1  UNL1       -0.1658
     23 F         138.1622  136.8287  166.0058 F       1  UNL1       -0.1658
     24 F         137.9926  139.8231  166.0771 F       1  UNL1       -0.1658
     25 N         141.0090  145.6443  161.5360 N.3     1  UNL1       -0.2985
     26 H         140.9299  145.1983  160.6221 H       1  UNL1        0.1232
     27 C         139.6150  145.7832  162.0722 C.3     1  UNL1        0.0686
     28 C         139.0016  144.6669  162.8643 C.3     1  UNL1        0.0207
     29 C         138.4065  143.4849  162.1581 C.3     1  UNL1        0.0335
     30 C         137.7930  142.3686  162.9504 C.3     1  UNL1        0.1422
     31 O         137.7746  142.4344  164.4488 O.3     1  UNL1       -0.3538
     32 C         138.3696  143.6164  165.1550 C.3     1  UNL1        0.1422
     33 C         138.9831  144.7327  164.3628 C.3     1  UNL1        0.0335
@<TRIPOS>BOND
     1     9    10    2
     2    10    11   am
     3    11    12    1
     4    12    13    1
     5    13    14    1
     6    14    15   ar
     7    15    16   ar
     8    16    17   ar
     9    17    21    1
    10    21    22    1
    11    21    23    1
    12    21    24    1
    13    17    18   ar
    14    18    19   ar
    15    19    20    1
    16     1    10    1
    17     1     2    1
    18     2     3    1
    19     3     4    1
    20     5     4    1
    21     5     6    1
    22     6     7    1
    23     7    25    1
    24    25    27    1
    25    27    28    1
    26    28    29    1
    27    29    30    1
    28    30    31    1
    29    31    32    1
    30    32    33    1
    31     7     8    1
    32    20    11    1
    33     5     1    1
    34    33    28    1
    35    19    14   ar
    36     8     1    1
    37    25    26    1
@<TRIPOS>MOLECULE
*****
 33 37 0 0 0
SMALL
GASTEIGER

@<TRIPOS>ATOM
      1 C         141.6172  140.9615  168.5363 C.3     1  UNL1        0.0704
      2 C         142.9657  141.6151  168.6014 C.3     1  UNL1        0.0087
      3 C         142.9152  142.6779  169.6588 C.3     1  UNL1        0.0005
      4 C         141.5354  142.6812  170.2471 C.3     1  UNL1        0.0005
      5 C         140.7332  141.6204  169.5534 C.3     1  UNL1        0.0095
      6 C         139.3847  140.9668  169.4882 C.3     1  UNL1        0.0162
      7 C         139.4352  139.9040  168.4309 C.3     1  UNL1        0.0545
      8 C         140.8150  139.9008  167.8425 C.3     1  UNL1        0.0243
      9 O         143.2982  139.0881  167.8926 O.2     1  UNL1       -0.2749
     10 C         142.5012  140.3027  167.5192 C.2     1  UNL1        0.2250
     11 N         142.5883  140.8586  166.1287 N.am    1  UNL1       -0.2750
     12 C         143.4723  140.1998  165.1116 C.3     1  UNL1        0.1000
     13 C         143.5594  140.7556  163.7212 C.3     1  UNL1        0.0670
     14 C         142.7624  141.9703  163.3478 C.ar    1  UNL1        0.0583
     15 N         142.8495  142.5261  161.9572 N.ar    1  UNL1       -0.2484
     16 C         142.0525  143.7408  161.5838 C.ar    1  UNL1        0.1023
     17 C         141.1684  144.3996  162.6009 C.ar    1  UNL1        0.0902
     18 C         141.0814  143.8437  163.9914 C.ar    1  UNL1        0.0040
     19 C         141.8784  142.6291  164.3648 C.ar    1  UNL1        0.0113
     20 C         141.7913  142.0732  165.7553 C.3     1  UNL1        0.1213
     21 C         140.3715  145.6142  162.2275 C.3     1  UNL1        0.4200
     22 F         139.5745  146.8289  161.8541 F       1  UNL1       -0.1658
     23 F         139.6625  145.5550  163.5481 F       1  UNL1       -0.1658
     24 F         141.0804  145.6735  160.9070 F       1  UNL1       -0.1658
     25 N         138.3044  139.0027  168.0319 N.3     1  UNL1       -0.2985
     26 H         137.5444  139.1750  168.6899 H       1  UNL1        0.1232
     27 C         137.7163  139.1016  166.6556 C.3     1  UNL1        0.0686
     28 C         138.6038  138.9928  165.4512 C.3     1  UNL1        0.0207
     29 C         138.7635  140.1648  164.5288 C.3     1  UNL1        0.0335
     30 C         139.6510  140.0560  163.3244 C.3     1  UNL1        0.1422
     31 O         140.3788  138.7751  163.0425 O.3     1  UNL1       -0.3538
     32 C         140.2192  137.6030  163.9648 C.3     1  UNL1        0.1422
     33 C         139.3317  137.7118  165.1692 C.3     1  UNL1        0.0335
@<TRIPOS>BOND
     1     9    10    2
     2    10    11   am
     3    11    12    1
     4    12    13    1
     5    13    14    1
     6    14    15   ar
     7    15    16   ar
     8    16    17   ar
     9    17    21    1
    10    21    22    1
    11    21    23    1
    12    21    24    1
    13    17    18   ar
    14    18    19   ar
    15    19    20    1
    16     1    10    1
    17     1     2    1
    18     2     3    1
    19     3     4    1
    20     5     4    1
    21     5     6    1
    22     6     7    1
    23     7    25    1
    24    25    27    1
    25    27    28    1
    26    28    29    1
    27    29    30    1
    28    30    31    1
    29    31    32    1
    30    32    33    1
    31     7     8    1
    32    20    11    1
    33     5     1    1
    34    33    28    1
    35    19    14   ar
    36     8     1    1
    37    25    26    1
@<TRIPOS>MOLECULE
*****
 33 37 0 0 0
SMALL
GASTEIGER

@<TRIPOS>ATOM
      1 C         139.1010  142.3259  162.9300 C.3     1  UNL1        0.0704
      2 C         137.8461  142.7499  163.6338 C.3     1  UNL1        0.0087
      3 C         137.6593  144.2202  163.4030 C.3     1  UNL1        0.0005
      4 C         138.7988  144.7049  162.5565 C.3     1  UNL1        0.0005
      5 C         139.6899  143.5342  162.2642 C.3     1  UNL1        0.0095
      6 C         140.9448  143.1102  161.5604 C.3     1  UNL1        0.0162
      7 C         141.1315  141.6399  161.7912 C.3     1  UNL1        0.0545
      8 C         139.9920  141.1551  162.6376 C.3     1  UNL1        0.0243
      9 O         137.5692  140.2293  162.8395 O.2     1  UNL1       -0.2749
     10 C         138.5122  141.1176  163.5958 C.2     1  UNL1        0.2250
     11 N         138.8662  140.7976  165.0179 N.am    1  UNL1       -0.2750
     12 C         138.2774  139.5893  165.6837 C.3     1  UNL1        0.1000
     13 C         138.6315  139.2693  167.1057 C.3     1  UNL1        0.0670
     14 C         139.5744  140.1576  167.8619 C.ar    1  UNL1        0.0583
     15 N         139.9284  139.8375  169.2840 N.ar    1  UNL1       -0.2484
     16 C         140.8714  140.7258  170.0402 C.ar    1  UNL1        0.1023
     17 C         141.4602  141.9341  169.3744 C.ar    1  UNL1        0.0902
     18 C         141.1062  142.2541  167.9523 C.ar    1  UNL1        0.0040
     19 C         140.1632  141.3658  167.1961 C.ar    1  UNL1        0.0113
     20 C         139.8092  141.6858  165.7741 C.3     1  UNL1        0.1213
     21 C         142.4032  142.8224  170.1306 C.3     1  UNL1        0.4200
     22 F         143.3461  143.7106  170.8868 F       1  UNL1       -0.1658
     23 F         141.4099  143.9436  170.0521 F       1  UNL1       -0.1658
     24 F         143.3964  141.7011  170.2091 F       1  UNL1       -0.1658
     25 N         142.2598  140.8015  161.2674 N.3     1  UNL1       -0.2985
     26 H         142.7014  141.3361  160.5194 H       1  UNL1        0.1232
     27 C         143.3570  140.3599  162.1899 C.3     1  UNL1        0.0686
     28 C         143.0207  139.7809  163.5322 C.3     1  UNL1        0.0207
     29 C         142.1866  138.5377  163.6251 C.3     1  UNL1        0.0335
     30 C         141.8503  137.9587  164.9674 C.3     1  UNL1        0.1422
     31 O         142.3482  138.6229  166.2167 O.3     1  UNL1       -0.3538
     32 C         143.1823  139.8661  166.1238 C.3     1  UNL1        0.1422
     33 C         143.5186  140.4451  164.7816 C.3     1  UNL1        0.0335
@<TRIPOS>BOND
     1     9    10    2
     2    10    11   am
     3    11    12    1
     4    12    13    1
     5    13    14    1
     6    14    15   ar
     7    15    16   ar
     8    16    17   ar
     9    17    21    1
    10    21    22    1
    11    21    23    1
    12    21    24    1
    13    17    18   ar
    14    18    19   ar
    15    19    20    1
    16     1    10    1
    17     1     2    1
    18     2     3    1
    19     3     4    1
    20     5     4    1
    21     5     6    1
    22     6     7    1
    23     7    25    1
    24    25    27    1
    25    27    28    1
    26    28    29    1
    27    29    30    1
    28    30    31    1
    29    31    32    1
    30    32    33    1
    31     7     8    1
    32    20    11    1
    33     5     1    1
    34    33    28    1
    35    19    14   ar
    36     8     1    1
    37    25    26    1
@<TRIPOS>MOLECULE
*****
 33 37 0 0 0
SMALL
GASTEIGER

@<TRIPOS>ATOM
      1 C         143.0173  141.9478  162.2547 C.3     1  UNL1        0.0704
      2 C         143.5039  140.5548  162.5242 C.3     1  UNL1        0.0087
      3 C         144.8719  140.6511  163.1321 C.3     1  UNL1        0.0005
      4 C         145.2307  142.1036  163.2382 C.3     1  UNL1        0.0005
      5 C         144.0846  142.9051  162.6960 C.3     1  UNL1        0.0095
      6 C         143.5980  144.2981  162.4266 C.3     1  UNL1        0.0162
      7 C         142.2300  144.2018  161.8187 C.3     1  UNL1        0.0545
      8 C         141.8712  142.7493  161.7125 C.3     1  UNL1        0.0243
      9 O         141.8299  140.6168  160.3658 O.2     1  UNL1       -0.2749
     10 C         141.9501  140.9906  161.8134 C.2     1  UNL1        0.2250
     11 N         141.0031  140.4071  162.8199 N.am    1  UNL1       -0.2750
     12 C         139.9359  139.4499  162.3786 C.3     1  UNL1        0.1000
     13 C         138.9890  138.8665  163.3850 C.3     1  UNL1        0.0670
     14 C         139.1093  139.2403  164.8327 C.ar    1  UNL1        0.0583
     15 N         138.1623  138.6568  165.8391 N.ar    1  UNL1       -0.2484
     16 C         138.2825  139.0306  167.2868 C.ar    1  UNL1        0.1023
     17 C         139.3498  139.9879  167.7281 C.ar    1  UNL1        0.0902
     18 C         140.2967  140.5713  166.7217 C.ar    1  UNL1        0.0040
     19 C         140.1764  140.1975  165.2740 C.ar    1  UNL1        0.0113
     20 C         141.1234  140.7809  164.2676 C.3     1  UNL1        0.1213
     21 C         139.4700  140.3617  169.1757 C.3     1  UNL1        0.4200
     22 F         139.5903  140.7356  170.6234 F       1  UNL1       -0.1658
     23 F         138.0881  139.8351  169.4265 F       1  UNL1       -0.1658
     24 F         140.8519  140.8884  168.9250 F       1  UNL1       -0.1658
     25 N         141.3716  145.3556  161.3920 N.3     1  UNL1       -0.2985
     26 H         140.9839  145.1128  160.4804 H       1  UNL1        0.1232
     27 C         140.2210  145.7919  162.2497 C.3     1  UNL1        0.0686
     28 C         139.4542  144.7793  163.0475 C.3     1  UNL1        0.0207
     29 C         138.5227  143.8286  162.3557 C.3     1  UNL1        0.0335
     30 C         137.7558  142.8160  163.1536 C.3     1  UNL1        0.1422
     31 O         137.9204  142.7541  164.6433 O.3     1  UNL1       -0.3538
     32 C         138.8519  143.7048  165.3350 C.3     1  UNL1        0.1422
     33 C         139.6188  144.7174  164.5372 C.3     1  UNL1        0.0335
@<TRIPOS>BOND
     1     9    10    2
     2    10    11   am
     3    11    12    1
     4    12    13    1
     5    13    14    1
     6    14    15   ar
     7    15    16   ar
     8    16    17   ar
     9    17    21    1
    10    21    22    1
    11    21    23    1
    12    21    24    1
    13    17    18   ar
    14    18    19   ar
    15    19    20    1
    16     1    10    1
    17     1     2    1
    18     2     3    1
    19     3     4    1
    20     5     4    1
    21     5     6    1
    22     6     7    1
    23     7    25    1
    24    25    27    1
    25    27    28    1
    26    28    29    1
    27    29    30    1
    28    30    31    1
    29    31    32    1
    30    32    33    1
    31     7     8    1
    32    20    11    1
    33     5     1    1
    34    33    28    1
    35    19    14   ar
    36     8     1    1
    37    25    26    1
@<TRIPOS>MOLECULE
*****
 33 37 0 0 0
SMALL
GASTEIGER

@<TRIPOS>ATOM
      1 C         142.1499  143.1748  162.6623 C.3     1  UNL1        0.0704
      2 C         140.9624  144.0765  162.8261 C.3     1  UNL1        0.0087
      3 C         141.4465  145.3851  163.3769 C.3     1  UNL1        0.0005
      4 C         142.9331  145.2922  163.5535 C.3     1  UNL1        0.0005
      5 C         143.3679  143.9262  163.1118 C.3     1  UNL1        0.0095
      6 C         144.5554  143.0245  162.9479 C.3     1  UNL1        0.0162
      7 C         144.0713  141.7159  162.3971 C.3     1  UNL1        0.0545
      8 C         142.5846  141.8089  162.2206 C.3     1  UNL1        0.0243
      9 O         140.5125  142.4674  160.7732 O.2     1  UNL1       -0.2749
     10 C         140.9319  142.4236  162.2128 C.2     1  UNL1        0.2250
     11 N         140.1333  141.6285  163.2028 N.am    1  UNL1       -0.2750
     12 C         138.9153  140.8772  162.7533 C.3     1  UNL1        0.1000
     13 C         138.1167  140.0822  163.7433 C.3     1  UNL1        0.0670
     14 C         138.5361  140.0384  165.1828 C.ar    1  UNL1        0.0583
     15 N         137.7375  139.2434  166.1728 N.ar    1  UNL1       -0.2484
     16 C         138.1569  139.1996  167.6123 C.ar    1  UNL1        0.1023
     17 C         139.3749  139.9509  168.0618 C.ar    1  UNL1        0.0902
     18 C         140.1735  140.7459  167.0718 C.ar    1  UNL1        0.0040
     19 C         139.7541  140.7897  165.6323 C.ar    1  UNL1        0.0113
     20 C         140.5527  141.5847  164.6423 C.3     1  UNL1        0.1213
     21 C         139.7943  139.9071  169.5013 C.3     1  UNL1        0.4200
     22 F         140.2137  139.8634  170.9408 F       1  UNL1       -0.1658
     23 F         141.1797  139.5097  169.0856 F       1  UNL1       -0.1658
     24 F         138.4090  140.3046  169.9170 F       1  UNL1       -0.1658
     25 N         144.9242  140.5237  162.0788 N.3     1  UNL1       -0.2985
     26 H         145.6439  140.4755  162.8000 H       1  UNL1        0.1232
     27 C         144.3052  139.1601  161.9930 C.3     1  UNL1        0.0686
     28 C         143.3192  138.7173  163.0330 C.3     1  UNL1        0.0207
     29 C         143.6519  138.8557  164.4891 C.3     1  UNL1        0.0335
     30 C         142.6659  138.4128  165.5291 C.3     1  UNL1        0.1422
     31 O         141.3472  137.8316  165.1130 O.3     1  UNL1       -0.3538
     32 C         141.0144  137.6932  163.6570 C.3     1  UNL1        0.1422
     33 C         142.0004  138.1360  162.6170 C.3     1  UNL1        0.0335
@<TRIPOS>BOND
     1     9    10    2
     2    10    11   am
     3    11    12    1
     4    12    13    1
     5    13    14    1
     6    14    15   ar
     7    15    16   ar
     8    16    17   ar
     9    17    21    1
    10    21    22    1
    11    21    23    1
    12    21    24    1
    13    17    18   ar
    14    18    19   ar
    15    19    20    1
    16     1    10    1
    17     1     2    1
    18     2     3    1
    19     3     4    1
    20     5     4    1
    21     5     6    1
    22     6     7    1
    23     7    25    1
    24    25    27    1
    25    27    28    1
    26    28    29    1
    27    29    30    1
    28    30    31    1
    29    31    32    1
    30    32    33    1
    31     7     8    1
    32    20    11    1
    33     5     1    1
    34    33    28    1
    35    19    14   ar
    36     8     1    1
    37    25    26    1
@<TRIPOS>MOLECULE
*****
 33 37 0 0 0
SMALL
GASTEIGER

@<TRIPOS>ATOM
      1 C         143.1801  140.7957  162.3212 C.3     1  UNL1        0.0704
      2 C         144.6326  140.8606  162.6898 C.3     1  UNL1        0.0087
      3 C         145.2120  142.0999  162.0746 C.3     1  UNL1        0.0005
      4 C         144.1175  142.8009  161.3258 C.3     1  UNL1        0.0005
      5 C         142.8617  141.9949  161.4782 C.3     1  UNL1        0.0095
      6 C         141.4092  141.9299  161.1096 C.3     1  UNL1        0.0162
      7 C         140.8298  140.6906  161.7247 C.3     1  UNL1        0.0545
      8 C         141.9243  139.9896  162.4736 C.3     1  UNL1        0.0243
      9 O         144.0399  138.3525  162.5245 O.2     1  UNL1       -0.2749
     10 C         143.4984  139.5965  163.1642 C.2     1  UNL1        0.2250
     11 N         143.2753  139.6414  164.6468 N.am    1  UNL1       -0.2750
     12 C         143.5936  138.4422  165.4898 C.3     1  UNL1        0.1000
     13 C         143.3705  138.4871  166.9724 C.3     1  UNL1        0.0670
     14 C         142.8289  139.7312  167.6120 C.ar    1  UNL1        0.0583
     15 N         142.6058  139.7760  169.0947 N.ar    1  UNL1       -0.2484
     16 C         142.0643  141.0201  169.7343 C.ar    1  UNL1        0.1023
     17 C         141.7459  142.2192  168.8913 C.ar    1  UNL1        0.0902
     18 C         141.9691  142.1744  167.4087 C.ar    1  UNL1        0.0040
     19 C         142.5106  140.9303  166.7691 C.ar    1  UNL1        0.0113
     20 C         142.7338  140.8854  165.2865 C.3     1  UNL1        0.1213
     21 C         141.2044  143.4633  169.5309 C.3     1  UNL1        0.4200
     22 F         140.6629  144.7073  170.1705 F       1  UNL1       -0.1658
     23 F         142.3047  143.4186  170.5494 F       1  UNL1       -0.1658
     24 F         140.1041  143.5080  168.5124 F       1  UNL1       -0.1658
     25 N         139.4059  140.2327  161.6110 N.3     1  UNL1       -0.2985
     26 H         139.4275  139.2144  161.5568 H       1  UNL1        0.1232
     27 C         138.4160  140.5884  162.6804 C.3     1  UNL1        0.0686
     28 C         138.4445  141.9518  163.3052 C.3     1  UNL1        0.0207
     29 C         137.8351  143.1190  162.5868 C.3     1  UNL1        0.0335
     30 C         137.8636  144.4824  163.2117 C.3     1  UNL1        0.1422
     31 O         138.5017  144.6785  164.5550 O.3     1  UNL1       -0.3538
     32 C         139.1112  143.5113  165.2734 C.3     1  UNL1        0.1422
     33 C         139.0826  142.1479  164.6486 C.3     1  UNL1        0.0335
@<TRIPOS>BOND
     1     9    10    2
     2    10    11   am
     3    11    12    1
     4    12    13    1
     5    13    14    1
     6    14    15   ar
     7    15    16   ar
     8    16    17   ar
     9    17    21    1
    10    21    22    1
    11    21    23    1
    12    21    24    1
    13    17    18   ar
    14    18    19   ar
    15    19    20    1
    16     1    10    1
    17     1     2    1
    18     2     3    1
    19     3     4    1
    20     5     4    1
    21     5     6    1
    22     6     7    1
    23     7    25    1
    24    25    27    1
    25    27    28    1
    26    28    29    1
    27    29    30    1
    28    30    31    1
    29    31    32    1
    30    32    33    1
    31     7     8    1
    32    20    11    1
    33     5     1    1
    34    33    28    1
    35    19    14   ar
    36     8     1    1
    37    25    26    1
@<TRIPOS>MOLECULE
*****
 33 37 0 0 0
SMALL
GASTEIGER

@<TRIPOS>ATOM
      1 C         139.4240  143.0422  161.2478 C.3     1  UNL1        0.0704
      2 C         140.2065  144.3218  161.2642 C.3     1  UNL1        0.0087
      3 C         141.0464  144.3674  160.0222 C.3     1  UNL1        0.0005
      4 C         140.7829  143.1160  159.2382 C.3     1  UNL1        0.0005
      5 C         139.7802  142.2970  159.9957 C.3     1  UNL1        0.0095
      6 C         138.9977  141.0174  159.9793 C.3     1  UNL1        0.0162
      7 C         138.1578  140.9718  161.2213 C.3     1  UNL1        0.0545
      8 C         138.4213  142.2232  162.0053 C.3     1  UNL1        0.0243
      9 O         138.1776  144.9926  162.4278 O.2     1  UNL1       -0.2749
     10 C         139.0677  143.7874  162.4999 C.2     1  UNL1        0.2250
     11 N         139.6016  143.3274  163.8241 N.am    1  UNL1       -0.2750
     12 C         139.2454  144.0726  165.0762 C.3     1  UNL1        0.1000
     13 C         139.7793  143.6126  166.4003 C.3     1  UNL1        0.0670
     14 C         140.6694  142.4074  166.4723 C.ar    1  UNL1        0.0583
     15 N         141.2033  141.9474  167.7965 N.ar    1  UNL1       -0.2484
     16 C         142.0934  140.7422  167.8686 C.ar    1  UNL1        0.1023
     17 C         142.4496  139.9970  166.6164 C.ar    1  UNL1        0.0902
     18 C         141.9157  140.4570  165.2923 C.ar    1  UNL1        0.0040
     19 C         141.0256  141.6622  165.2202 C.ar    1  UNL1        0.0113
     20 C         140.4917  142.1222  163.8961 C.3     1  UNL1        0.1213
     21 C         143.3397  138.7918  166.6884 C.3     1  UNL1        0.4200
     22 F         144.2298  137.5866  166.7605 F       1  UNL1       -0.1658
     23 F         143.6889  138.9631  165.2397 F       1  UNL1       -0.1658
     24 F         142.9906  138.6205  168.1371 F       1  UNL1       -0.1658
     25 N         137.2192  139.8684  161.6109 N.3     1  UNL1       -0.2985
     26 H         136.4358  139.9042  160.9587 H       1  UNL1        0.1232
     27 C         137.6998  138.4477  161.6329 C.3     1  UNL1        0.0686
     28 C         138.9090  138.0774  162.4395 C.3     1  UNL1        0.0207
     29 C         140.2483  137.9626  161.7738 C.3     1  UNL1        0.0335
     30 C         141.4575  137.5923  162.5805 C.3     1  UNL1        0.1422
     31 O         141.3275  137.3368  164.0528 O.3     1  UNL1       -0.3538
     32 C         139.9882  137.4516  164.7185 C.3     1  UNL1        0.1422
     33 C         138.7790  137.8219  163.9119 C.3     1  UNL1        0.0335
@<TRIPOS>BOND
     1     9    10    2
     2    10    11   am
     3    11    12    1
     4    12    13    1
     5    13    14    1
     6    14    15   ar
     7    15    16   ar
     8    16    17   ar
     9    17    21    1
    10    21    22    1
    11    21    23    1
    12    21    24    1
    13    17    18   ar
    14    18    19   ar
    15    19    20    1
    16     1    10    1
    17     1     2    1
    18     2     3    1
    19     3     4    1
    20     5     4    1
    21     5     6    1
    22     6     7    1
    23     7    25    1
    24    25    27    1
    25    27    28    1
    26    28    29    1
    27    29    30    1
    28    30    31    1
    29    31    32    1
    30    32    33    1
    31     7     8    1
    32    20    11    1
    33     5     1    1
    34    33    28    1
    35    19    14   ar
    36     8     1    1
    37    25    26    1
@<TRIPOS>MOLECULE
*****
 33 37 0 0 0
SMALL
GASTEIGER

@<TRIPOS>ATOM
      1 C         139.2116  143.8837  163.0615 C.3     1  UNL1        0.0704
      2 C         139.7844  144.8834  164.0220 C.3     1  UNL1        0.0087
      3 C         138.8432  145.0019  165.1839 C.3     1  UNL1        0.0005
      4 C         137.6886  144.0756  164.9415 C.3     1  UNL1        0.0005
      5 C         137.9162  143.3844  163.6298 C.3     1  UNL1        0.0095
      6 C         137.3434  142.3848  162.6694 C.3     1  UNL1        0.0162
      7 C         138.2847  142.2662  161.5075 C.3     1  UNL1        0.0545
      8 C         139.4392  143.1926  161.7498 C.3     1  UNL1        0.0243
      9 O         140.5272  145.6228  161.6492 O.2     1  UNL1       -0.2749
     10 C         140.5069  144.3830  162.4933 C.2     1  UNL1        0.2250
     11 N         141.7819  143.6424  162.7691 N.am    1  UNL1       -0.2750
     12 C         143.0771  144.1417  162.2008 C.3     1  UNL1        0.1000
     13 C         144.3521  143.4012  162.4766 C.3     1  UNL1        0.0670
     14 C         144.3317  142.1614  163.3207 C.ar    1  UNL1        0.0583
     15 N         145.6067  141.4208  163.5966 N.ar    1  UNL1       -0.2484
     16 C         145.5864  140.1810  164.4407 C.ar    1  UNL1        0.1023
     17 C         144.2910  139.6818  165.0089 C.ar    1  UNL1        0.0902
     18 C         143.0161  140.4223  164.7331 C.ar    1  UNL1        0.0040
     19 C         143.0365  141.6621  163.8890 C.ar    1  UNL1        0.0113
     20 C         141.7615  142.4026  163.6132 C.3     1  UNL1        0.1213
     21 C         144.2707  138.4420  165.8530 C.3     1  UNL1        0.4200
     22 F         144.2503  137.2022  166.6971 F       1  UNL1       -0.1658
     23 F         142.7753  138.5241  165.9377 F       1  UNL1       -0.1658
     24 F         145.7660  138.3598  165.7684 F       1  UNL1       -0.1658
     25 N         138.1032  141.3773  160.3129 N.3     1  UNL1       -0.2985
     26 H         138.1483  141.9777  159.4895 H       1  UNL1        0.1232
     27 C         139.0522  140.2408  160.0726 C.3     1  UNL1        0.0686
     28 C         139.4161  139.3171  161.1970 C.3     1  UNL1        0.0207
     29 C         140.8515  139.1581  161.6023 C.3     1  UNL1        0.0335
     30 C         141.2154  138.2343  162.7267 C.3     1  UNL1        0.1422
     31 O         140.1439  137.4697  163.4458 O.3     1  UNL1       -0.3538
     32 C         138.7085  137.6288  163.0406 C.3     1  UNL1        0.1422
     33 C         138.3446  138.5525  161.9162 C.3     1  UNL1        0.0335
@<TRIPOS>BOND
     1     9    10    2
     2    10    11   am
     3    11    12    1
     4    12    13    1
     5    13    14    1
     6    14    15   ar
     7    15    16   ar
     8    16    17   ar
     9    17    21    1
    10    21    22    1
    11    21    23    1
    12    21    24    1
    13    17    18   ar
    14    18    19   ar
    15    19    20    1
    16     1    10    1
    17     1     2    1
    18     2     3    1
    19     3     4    1
    20     5     4    1
    21     5     6    1
    22     6     7    1
    23     7    25    1
    24    25    27    1
    25    27    28    1
    26    28    29    1
    27    29    30    1
    28    30    31    1
    29    31    32    1
    30    32    33    1
    31     7     8    1
    32    20    11    1
    33     5     1    1
    34    33    28    1
    35    19    14   ar
    36     8     1    1
    37    25    26    1
@<TRIPOS>MOLECULE
*****
 33 37 0 0 0
SMALL
GASTEIGER

@<TRIPOS>ATOM
      1 C         141.8637  142.8702  161.1341 C.3     1  UNL1        0.0704
      2 C         140.4361  142.9652  160.6839 C.3     1  UNL1        0.0087
      3 C         139.9496  144.3539  160.9751 C.3     1  UNL1        0.0005
      4 C         141.0766  145.1172  161.6053 C.3     1  UNL1        0.0005
      5 C         142.2596  144.2003  161.7036 C.3     1  UNL1        0.0095
      6 C         143.6873  144.1053  162.1538 C.3     1  UNL1        0.0162
      7 C         144.1738  142.7166  161.8626 C.3     1  UNL1        0.0545
      8 C         143.0468  141.9532  161.2324 C.3     1  UNL1        0.0243
      9 O         141.7398  141.2310  159.1223 O.2     1  UNL1       -0.2749
     10 C         141.4679  141.5402  160.5646 C.2     1  UNL1        0.2250
     11 N         140.8001  140.5193  161.4376 N.am    1  UNL1       -0.2750
     12 C         140.4042  139.1893  160.8681 C.3     1  UNL1        0.1000
     13 C         139.7364  138.1685  161.7410 C.3     1  UNL1        0.0670
     14 C         139.4645  138.4777  163.1834 C.ar    1  UNL1        0.0583
     15 N         138.7967  137.4569  164.0563 N.ar    1  UNL1       -0.2484
     16 C         138.5248  137.7661  165.4987 C.ar    1  UNL1        0.1023
     17 C         138.9207  139.0962  166.0682 C.ar    1  UNL1        0.0902
     18 C         139.5885  140.1170  165.1952 C.ar    1  UNL1        0.0040
     19 C         139.8604  139.8077  163.7529 C.ar    1  UNL1        0.0113
     20 C         140.5282  140.8285  162.8799 C.3     1  UNL1        0.1213
     21 C         138.6488  139.4054  167.5105 C.3     1  UNL1        0.4200
     22 F         138.3769  139.7146  168.9529 F       1  UNL1       -0.1658
     23 F         137.3508  138.6585  167.4260 F       1  UNL1       -0.1658
     24 F         139.9469  140.1523  167.5951 F       1  UNL1       -0.1658
     25 N         145.5463  142.1846  162.1510 N.3     1  UNL1       -0.2985
     26 H         146.2056  142.9247  161.9101 H       1  UNL1        0.1232
     27 C         145.8973  141.7257  163.5352 C.3     1  UNL1        0.0686
     28 C         144.8632  141.0500  164.3861 C.3     1  UNL1        0.0207
     29 C         143.9526  141.8691  165.2521 C.3     1  UNL1        0.0335
     30 C         142.9184  141.1933  166.1029 C.3     1  UNL1        0.1422
     31 O         142.7949  139.6985  166.0877 O.3     1  UNL1       -0.3538
     32 C         143.7055  138.8794  165.2218 C.3     1  UNL1        0.1422
     33 C         144.7396  139.5551  164.3709 C.3     1  UNL1        0.0335
@<TRIPOS>BOND
     1     9    10    2
     2    10    11   am
     3    11    12    1
     4    12    13    1
     5    13    14    1
     6    14    15   ar
     7    15    16   ar
     8    16    17   ar
     9    17    21    1
    10    21    22    1
    11    21    23    1
    12    21    24    1
    13    17    18   ar
    14    18    19   ar
    15    19    20    1
    16     1    10    1
    17     1     2    1
    18     2     3    1
    19     3     4    1
    20     5     4    1
    21     5     6    1
    22     6     7    1
    23     7    25    1
    24    25    27    1
    25    27    28    1
    26    28    29    1
    27    29    30    1
    28    30    31    1
    29    31    32    1
    30    32    33    1
    31     7     8    1
    32    20    11    1
    33     5     1    1
    34    33    28    1
    35    19    14   ar
    36     8     1    1
    37    25    26    1
