@<TRIPOS>MOLECULE
*****
 25 28 0 0 0
SMALL
GASTEIGER

@<TRIPOS>ATOM
      1 N         140.4613  142.9650  163.4269 N.ar    1  UNL1       -0.2563
      2 C         141.3591  143.3577  164.5625 C.ar    1  UNL1        0.1851
      3 N         141.2794  142.6256  165.8693 N.ar    1  UNL1       -0.2244
      4 C         140.3019  141.5009  166.0405 C.ar    1  UNL1        0.0941
      5 C         139.9988  140.6026  167.2029 C.ar    1  UNL1        0.0245
      6 C         138.9136  139.6548  166.7858 C.ar    1  UNL1        0.0371
      7 S         138.5460  139.9673  165.3655 S.2     1  UNL1       -0.0802
      8 C         139.4040  141.1082  164.9049 C.ar    1  UNL1        0.1036
      9 C         139.4837  141.8402  163.5981 C.ar    1  UNL1        0.2733
     10 O         138.5858  141.4475  162.4625 O.2     1  UNL1       -0.2660
     11 C         140.6641  140.6449  168.5467 C.ar    1  UNL1       -0.0020
     12 C         139.9842  141.3227  169.6992 C.ar    1  UNL1       -0.0002
     13 C         140.6495  141.3649  171.0430 C.ar    1  UNL1       -0.0000
     14 C         141.9947  140.7294  171.2342 C.ar    1  UNL1       -0.0003
     15 C         142.6745  140.0516  170.0816 C.ar    1  UNL1       -0.0043
     16 C         142.0093  140.0093  168.7378 C.ar    1  UNL1       -0.0218
     17 C         142.6892  139.3315  167.5854 C.3     1  UNL1        0.0310
     18 C         140.7003  145.1612  159.5064 C.ar    1  UNL1        0.1388
     19 C         140.0926  145.8289  160.7043 C.ar    1  UNL1        0.0384
     20 C         140.0129  145.0968  162.0111 C.ar    1  UNL1        0.0208
     21 C         140.5409  143.6970  162.1201 C.ar    1  UNL1        0.0685
     22 C         141.1487  143.0294  160.9222 C.ar    1  UNL1        0.0208
     23 C         141.2283  143.7614  159.6154 C.ar    1  UNL1        0.0384
     24 C         142.0640  145.9063  157.4244 C.3     1  UNL1        0.2525
     25 O         140.7800  145.8932  158.1997 O.3     1  UNL1       -0.4714
@<TRIPOS>BOND
     1    24    25    1
     2    25    18    1
     3    18    19   ar
     4    19    20   ar
     5    20    21   ar
     6    21     1    1
     7     1     2   ar
     8     2     3   ar
     9     3     4   ar
    10     4     5   ar
    11     5    11    1
    12    11    12   ar
    13    12    13   ar
    14    13    14   ar
    15    14    15   ar
    16    15    16   ar
    17    16    17    1
    18     5     6   ar
    19     6     7   ar
    20     7     8   ar
    21     8     9   ar
    22     9    10    2
    23    21    22   ar
    24    22    23   ar
    25    23    18   ar
    26     9     1   ar
    27     8     4   ar
    28    16    11   ar
@<TRIPOS>MOLECULE
*****
 25 28 0 0 0
SMALL
GASTEIGER

@<TRIPOS>ATOM
      1 N         141.3453  139.2974  162.9575 N.ar    1  UNL1       -0.2563
      2 C         142.2882  140.2264  163.6630 C.ar    1  UNL1        0.1851
      3 N         142.0106  140.6457  165.0763 N.ar    1  UNL1       -0.2244
      4 C         140.7902  140.1359  165.7839 C.ar    1  UNL1        0.0941
      5 C         140.2591  140.3732  167.1665 C.ar    1  UNL1        0.0245
      6 C         138.9880  139.5909  167.3155 C.ar    1  UNL1        0.0371
      7 S         138.7335  138.8700  166.0249 S.2     1  UNL1       -0.0802
      8 C         139.8474  139.2068  165.0783 C.ar    1  UNL1        0.1036
      9 C         140.1249  138.7876  163.6651 C.ar    1  UNL1        0.2733
     10 O         139.1820  137.8585  162.9595 O.2     1  UNL1       -0.2660
     11 C         140.8886  141.2406  168.2160 C.ar    1  UNL1       -0.0020
     12 C         140.3295  142.6039  168.4965 C.ar    1  UNL1       -0.0002
     13 C         140.9590  143.4715  169.5459 C.ar    1  UNL1       -0.0000
     14 C         142.1476  142.9755  170.3148 C.ar    1  UNL1       -0.0003
     15 C         142.7067  141.6122  170.0343 C.ar    1  UNL1       -0.0043
     16 C         142.0773  140.7447  168.9849 C.ar    1  UNL1       -0.0218
     17 C         142.6364  139.3814  168.7044 C.3     1  UNL1        0.0310
     18 C         142.1778  138.0396  158.7178 C.ar    1  UNL1        0.1388
     19 C         142.9801  137.4581  159.8439 C.ar    1  UNL1        0.0384
     20 C         142.7025  137.8774  161.2572 C.ar    1  UNL1        0.0208
     21 C         141.6228  138.8782  161.5442 C.ar    1  UNL1        0.0685
     22 C         140.8205  139.4597  160.4181 C.ar    1  UNL1        0.0208
     23 C         141.0980  139.0405  159.0049 C.ar    1  UNL1        0.0384
     24 C         142.9058  136.2197  157.0125 C.3     1  UNL1        0.2525
     25 O         142.4553  137.6204  157.3046 O.3     1  UNL1       -0.4714
@<TRIPOS>BOND
     1    24    25    1
     2    25    18    1
     3    18    19   ar
     4    19    20   ar
     5    20    21   ar
     6    21     1    1
     7     1     2   ar
     8     2     3   ar
     9     3     4   ar
    10     4     5   ar
    11     5    11    1
    12    11    12   ar
    13    12    13   ar
    14    13    14   ar
    15    14    15   ar
    16    15    16   ar
    17    16    17    1
    18     5     6   ar
    19     6     7   ar
    20     7     8   ar
    21     8     9   ar
    22     9    10    2
    23    21    22   ar
    24    22    23   ar
    25    23    18   ar
    26     9     1   ar
    27     8     4   ar
    28    16    11   ar
@<TRIPOS>MOLECULE
*****
 25 28 0 0 0
SMALL
GASTEIGER

@<TRIPOS>ATOM
      1 N         140.6811  143.3740  162.4741 N.ar    1  UNL1       -0.2563
      2 C         139.5093  143.1540  163.3842 C.ar    1  UNL1        0.1851
      3 N         139.7341  142.7771  164.8187 N.ar    1  UNL1       -0.2244
      4 C         141.1308  142.6202  165.3428 C.ar    1  UNL1        0.0941
      5 C         141.6590  142.2591  166.6995 C.ar    1  UNL1        0.0245
      6 C         143.1573  142.2560  166.6278 C.ar    1  UNL1        0.0371
      7 S         143.5550  142.6151  165.2268 S.2     1  UNL1       -0.0802
      8 C         142.3026  142.8402  164.4326 C.ar    1  UNL1        0.1036
      9 C         142.0778  143.2171  162.9983 C.ar    1  UNL1        0.2733
     10 O         143.2496  143.4371  162.0881 O.2     1  UNL1       -0.2660
     11 C         140.8338  141.9547  167.9145 C.ar    1  UNL1       -0.0020
     12 C         140.7390  142.9563  169.0270 C.ar    1  UNL1       -0.0002
     13 C         139.9138  142.6520  170.2421 C.ar    1  UNL1       -0.0000
     14 C         139.1834  141.3458  170.3447 C.ar    1  UNL1       -0.0003
     15 C         139.2782  140.3442  169.2322 C.ar    1  UNL1       -0.0043
     16 C         140.1034  140.6486  168.0171 C.ar    1  UNL1       -0.0218
     17 C         140.1982  139.6468  166.9047 C.3     1  UNL1        0.0310
     18 C         140.0066  144.5047  158.1710 C.ar    1  UNL1        0.1388
     19 C         139.7426  143.1005  158.6277 C.ar    1  UNL1        0.0384
     20 C         139.9674  142.7237  160.0621 C.ar    1  UNL1        0.0208
     21 C         140.4563  143.7509  161.0397 C.ar    1  UNL1        0.0685
     22 C         140.7203  145.1551  160.5830 C.ar    1  UNL1        0.0208
     23 C         140.4955  145.5320  159.1486 C.ar    1  UNL1        0.0384
     24 C         139.7002  146.3273  156.3449 C.3     1  UNL1        0.2525
     25 O         139.7818  144.8816  156.7366 O.3     1  UNL1       -0.4714
@<TRIPOS>BOND
     1    24    25    1
     2    25    18    1
     3    18    19   ar
     4    19    20   ar
     5    20    21   ar
     6    21     1    1
     7     1     2   ar
     8     2     3   ar
     9     3     4   ar
    10     4     5   ar
    11     5    11    1
    12    11    12   ar
    13    12    13   ar
    14    13    14   ar
    15    14    15   ar
    16    15    16   ar
    17    16    17    1
    18     5     6   ar
    19     6     7   ar
    20     7     8   ar
    21     8     9   ar
    22     9    10    2
    23    21    22   ar
    24    22    23   ar
    25    23    18   ar
    26     9     1   ar
    27     8     4   ar
    28    16    11   ar
@<TRIPOS>MOLECULE
*****
 25 28 0 0 0
SMALL
GASTEIGER

@<TRIPOS>ATOM
      1 N         139.8387  140.8917  162.7182 N.ar    1  UNL1       -0.2563
      2 C         140.8414  141.8072  163.3557 C.ar    1  UNL1        0.1851
      3 N         141.0032  141.8203  164.8469 N.ar    1  UNL1       -0.2244
      4 C         140.1623  140.9181  165.7006 C.ar    1  UNL1        0.0941
      5 C         140.0992  140.7129  167.1851 C.ar    1  UNL1        0.0245
      6 C         139.0575  139.6706  167.4651 C.ar    1  UNL1        0.0371
      7 S         138.4767  139.2317  166.1536 S.2     1  UNL1       -0.0802
      8 C         139.1595  140.0027  165.0631 C.ar    1  UNL1        0.1036
      9 C         138.9977  139.9895  163.5719 C.ar    1  UNL1        0.2733
     10 O         137.9949  139.0740  162.9344 O.2     1  UNL1       -0.2660
     11 C         140.9318  141.4249  168.2097 C.ar    1  UNL1       -0.0020
     12 C         140.4436  142.7090  168.8120 C.ar    1  UNL1       -0.0002
     13 C         141.2761  143.4211  169.8367 C.ar    1  UNL1       -0.0000
     14 C         142.5968  142.8491  170.2590 C.ar    1  UNL1       -0.0003
     15 C         143.0850  141.5650  169.6567 C.ar    1  UNL1       -0.0043
     16 C         142.2525  140.8529  168.6321 C.ar    1  UNL1       -0.0218
     17 C         142.7408  139.5688  168.0299 C.3     1  UNL1        0.0310
     18 C         139.3532  140.8520  158.2446 C.ar    1  UNL1        0.1388
     19 C         140.4125  140.0097  158.8916 C.ar    1  UNL1        0.0384
     20 C         140.5743  140.0230  160.3828 C.ar    1  UNL1        0.0208
     21 C         139.6768  140.8785  161.2270 C.ar    1  UNL1        0.0685
     22 C         138.6176  141.7207  160.5800 C.ar    1  UNL1        0.0208
     23 C         138.4557  141.7075  159.0889 C.ar    1  UNL1        0.0384
     24 C         137.8200  140.8859  156.1474 C.3     1  UNL1        0.2525
     25 O         139.1914  140.8388  156.7535 O.3     1  UNL1       -0.4714
@<TRIPOS>BOND
     1    24    25    1
     2    25    18    1
     3    18    19   ar
     4    19    20   ar
     5    20    21   ar
     6    21     1    1
     7     1     2   ar
     8     2     3   ar
     9     3     4   ar
    10     4     5   ar
    11     5    11    1
    12    11    12   ar
    13    12    13   ar
    14    13    14   ar
    15    14    15   ar
    16    15    16   ar
    17    16    17    1
    18     5     6   ar
    19     6     7   ar
    20     7     8   ar
    21     8     9   ar
    22     9    10    2
    23    21    22   ar
    24    22    23   ar
    25    23    18   ar
    26     9     1   ar
    27     8     4   ar
    28    16    11   ar
@<TRIPOS>MOLECULE
*****
 25 28 0 0 0
SMALL
GASTEIGER

@<TRIPOS>ATOM
      1 N         141.0311  139.6940  162.6706 N.ar    1  UNL1       -0.2563
      2 C         140.1508  140.6322  163.4418 C.ar    1  UNL1        0.1851
      3 N         140.3354  140.7874  164.9223 N.ar    1  UNL1       -0.2244
      4 C         141.4001  140.0044  165.6316 C.ar    1  UNL1        0.0941
      5 C         141.8141  139.9496  167.0723 C.ar    1  UNL1        0.0245
      6 C         142.9503  138.9775  167.1915 C.ar    1  UNL1        0.0371
      7 S         143.2385  138.4315  165.8245 S.2     1  UNL1       -0.0802
      8 C         142.2805  139.0662  164.8604 C.ar    1  UNL1        0.1036
      9 C         142.0960  138.9109  163.3799 C.ar    1  UNL1        0.2733
     10 O         142.9763  137.9727  162.6087 O.2     1  UNL1       -0.2660
     11 C         141.1998  140.7299  168.1964 C.ar    1  UNL1       -0.0020
     12 C         139.9051  140.2772  168.8039 C.ar    1  UNL1       -0.0002
     13 C         139.2907  141.0575  169.9281 C.ar    1  UNL1       -0.0000
     14 C         139.9710  142.2905  170.4447 C.ar    1  UNL1       -0.0003
     15 C         141.2656  142.7431  169.8373 C.ar    1  UNL1       -0.0043
     16 C         141.8800  141.9629  168.7131 C.ar    1  UNL1       -0.0218
     17 C         143.1747  142.4156  168.1057 C.3     1  UNL1        0.0310
     18 C         140.4776  139.2282  158.2291 C.ar    1  UNL1        0.1388
     19 C         139.6239  138.4404  159.1780 C.ar    1  UNL1        0.0384
     20 C         139.8084  138.5956  160.6585 C.ar    1  UNL1        0.0208
     21 C         140.8467  139.5387  161.1901 C.ar    1  UNL1        0.0685
     22 C         141.7004  140.3266  160.2412 C.ar    1  UNL1        0.0208
     23 C         141.5159  140.1713  158.7608 C.ar    1  UNL1        0.0384
     24 C         139.8542  137.7555  156.1816 C.3     1  UNL1        0.2525
     25 O         140.2932  139.0730  156.7486 O.3     1  UNL1       -0.4714
@<TRIPOS>BOND
     1    24    25    1
     2    25    18    1
     3    18    19   ar
     4    19    20   ar
     5    20    21   ar
     6    21     1    1
     7     1     2   ar
     8     2     3   ar
     9     3     4   ar
    10     4     5   ar
    11     5    11    1
    12    11    12   ar
    13    12    13   ar
    14    13    14   ar
    15    14    15   ar
    16    15    16   ar
    17    16    17    1
    18     5     6   ar
    19     6     7   ar
    20     7     8   ar
    21     8     9   ar
    22     9    10    2
    23    21    22   ar
    24    22    23   ar
    25    23    18   ar
    26     9     1   ar
    27     8     4   ar
    28    16    11   ar
@<TRIPOS>MOLECULE
*****
 25 28 0 0 0
SMALL
GASTEIGER

@<TRIPOS>ATOM
      1 N         141.7740  140.3827  162.9622 N.ar    1  UNL1       -0.2563
      2 C         142.2173  139.6633  164.2016 C.ar    1  UNL1        0.1851
      3 N         141.8493  140.2007  165.5528 N.ar    1  UNL1       -0.2244
      4 C         141.0380  141.4574  165.6647 C.ar    1  UNL1        0.0941
      5 C         140.5275  142.2202  166.8511 C.ar    1  UNL1        0.0245
      6 C         139.7687  143.4110  166.3449 C.ar    1  UNL1        0.0371
      7 S         139.8103  143.3841  164.8458 S.2     1  UNL1       -0.0802
      8 C         140.5948  142.1767  164.4253 C.ar    1  UNL1        0.1036
      9 C         140.9627  141.6394  163.0741 C.ar    1  UNL1        0.2733
     10 O         140.5195  142.3588  161.8348 O.2     1  UNL1       -0.2660
     11 C         140.7387  141.8561  168.2908 C.ar    1  UNL1       -0.0020
     12 C         141.6515  142.6826  169.1473 C.ar    1  UNL1       -0.0002
     13 C         141.8627  142.3186  170.5871 C.ar    1  UNL1       -0.0000
     14 C         141.1612  141.1280  171.1703 C.ar    1  UNL1       -0.0003
     15 C         140.2484  140.3014  170.3138 C.ar    1  UNL1       -0.0043
     16 C         140.0371  140.6655  168.8740 C.ar    1  UNL1       -0.0218
     17 C         139.1244  139.8389  168.0176 C.3     1  UNL1        0.0310
     18 C         142.8780  138.7707  158.9085 C.ar    1  UNL1        0.1388
     19 C         143.8617  139.6005  159.6790 C.ar    1  UNL1        0.0384
     20 C         143.4937  140.1378  161.0303 C.ar    1  UNL1        0.0208
     21 C         142.1420  139.8453  161.6110 C.ar    1  UNL1        0.0685
     22 C         141.1583  139.0155  160.8405 C.ar    1  UNL1        0.0208
     23 C         141.5262  138.4782  159.4893 C.ar    1  UNL1        0.0384
     24 C         142.8039  136.8587  157.1509 C.3     1  UNL1        0.2525
     25 O         143.2460  138.2333  157.5573 O.3     1  UNL1       -0.4714
@<TRIPOS>BOND
     1    24    25    1
     2    25    18    1
     3    18    19   ar
     4    19    20   ar
     5    20    21   ar
     6    21     1    1
     7     1     2   ar
     8     2     3   ar
     9     3     4   ar
    10     4     5   ar
    11     5    11    1
    12    11    12   ar
    13    12    13   ar
    14    13    14   ar
    15    14    15   ar
    16    15    16   ar
    17    16    17    1
    18     5     6   ar
    19     6     7   ar
    20     7     8   ar
    21     8     9   ar
    22     9    10    2
    23    21    22   ar
    24    22    23   ar
    25    23    18   ar
    26     9     1   ar
    27     8     4   ar
    28    16    11   ar
@<TRIPOS>MOLECULE
*****
 25 28 0 0 0
SMALL
GASTEIGER

@<TRIPOS>ATOM
      1 N         142.9110  141.1287  162.9138 N.ar    1  UNL1       -0.2563
      2 C         142.0488  142.0872  163.6805 C.ar    1  UNL1        0.1851
      3 N         141.7496  141.8337  165.1283 N.ar    1  UNL1       -0.2244
      4 C         142.3126  140.6217  165.8095 C.ar    1  UNL1        0.0941
      5 C         142.1910  140.1131  167.2154 C.ar    1  UNL1        0.0245
      6 C         142.9781  138.8403  167.3177 C.ar    1  UNL1        0.0371
      7 S         143.5861  138.5622  165.9749 S.2     1  UNL1       -0.0802
      8 C         143.1748  139.6631  165.0428 C.ar    1  UNL1        0.1036
      9 C         143.4740  139.9166  163.5950 C.ar    1  UNL1        0.2733
     10 O         144.3362  138.9581  162.8283 O.2     1  UNL1       -0.2660
     11 C         141.4181  140.7633  168.3244 C.ar    1  UNL1       -0.0020
     12 C         140.0551  140.2534  168.6878 C.ar    1  UNL1       -0.0002
     13 C         139.2820  140.9035  169.7968 C.ar    1  UNL1       -0.0000
     14 C         139.8721  142.0636  170.5423 C.ar    1  UNL1       -0.0003
     15 C         141.2351  142.5736  170.1789 C.ar    1  UNL1       -0.0043
     16 C         142.0082  141.9235  169.0699 C.ar    1  UNL1       -0.0218
     17 C         143.3712  142.4335  168.7066 C.3     1  UNL1        0.0310
     18 C         143.8086  141.8891  158.5703 C.ar    1  UNL1        0.1388
     19 C         142.6619  141.0020  158.9550 C.ar    1  UNL1        0.0384
     20 C         142.3627  140.7485  160.4029 C.ar    1  UNL1        0.0208
     21 C         143.2102  141.3822  161.4660 C.ar    1  UNL1        0.0685
     22 C         144.3569  142.2693  161.0812 C.ar    1  UNL1        0.0208
     23 C         144.6561  142.5228  159.6334 C.ar    1  UNL1        0.0384
     24 C         143.2943  141.4664  156.0589 C.3     1  UNL1        0.2525
     25 O         144.1078  142.1426  157.1225 O.3     1  UNL1       -0.4714
@<TRIPOS>BOND
     1    24    25    1
     2    25    18    1
     3    18    19   ar
     4    19    20   ar
     5    20    21   ar
     6    21     1    1
     7     1     2   ar
     8     2     3   ar
     9     3     4   ar
    10     4     5   ar
    11     5    11    1
    12    11    12   ar
    13    12    13   ar
    14    13    14   ar
    15    14    15   ar
    16    15    16   ar
    17    16    17    1
    18     5     6   ar
    19     6     7   ar
    20     7     8   ar
    21     8     9   ar
    22     9    10    2
    23    21    22   ar
    24    22    23   ar
    25    23    18   ar
    26     9     1   ar
    27     8     4   ar
    28    16    11   ar
@<TRIPOS>MOLECULE
*****
 25 28 0 0 0
SMALL
GASTEIGER

@<TRIPOS>ATOM
      1 N         143.0589  141.6005  162.2596 N.ar    1  UNL1       -0.2563
      2 C         143.7767  140.8551  163.3456 C.ar    1  UNL1        0.1851
      3 N         143.3222  140.9827  164.7694 N.ar    1  UNL1       -0.2244
      4 C         142.1500  141.8555  165.1072 C.ar    1  UNL1        0.0941
      5 C         141.4787  142.1745  166.4101 C.ar    1  UNL1        0.0245
      6 C         140.3460  143.1170  166.1294 C.ar    1  UNL1        0.0371
      7 S         140.3174  143.3805  164.6530 S.2     1  UNL1       -0.0802
      8 C         141.4323  142.6008  164.0213 C.ar    1  UNL1        0.1036
      9 C         141.8867  142.4733  162.5975 C.ar    1  UNL1        0.2733
     10 O         141.1690  143.2187  161.5115 O.2     1  UNL1       -0.2660
     11 C         141.8711  141.6441  167.7572 C.ar    1  UNL1       -0.0020
     12 C         143.0423  142.2356  168.4841 C.ar    1  UNL1       -0.0002
     13 C         143.4348  141.7052  169.8312 C.ar    1  UNL1       -0.0000
     14 C         142.6560  140.5833  170.4515 C.ar    1  UNL1       -0.0003
     15 C         141.4848  139.9918  169.7246 C.ar    1  UNL1       -0.0043
     16 C         141.0923  140.5222  168.3775 C.ar    1  UNL1       -0.0218
     17 C         139.9211  139.9306  167.6507 C.3     1  UNL1        0.0310
     18 C         144.4222  141.2180  157.9882 C.ar    1  UNL1        0.1388
     19 C         144.7521  142.4530  158.7730 C.ar    1  UNL1        0.0384
     20 C         144.2977  142.5805  160.1969 C.ar    1  UNL1        0.0208
     21 C         143.5133  141.4730  160.8358 C.ar    1  UNL1        0.0685
     22 C         143.1834  140.2380  160.0510 C.ar    1  UNL1        0.0208
     23 C         143.6378  140.1105  158.6272 C.ar    1  UNL1        0.0384
     24 C         144.7286  142.2492  155.6232 C.3     1  UNL1        0.2525
     25 O         144.8766  141.0905  156.5644 O.3     1  UNL1       -0.4714
@<TRIPOS>BOND
     1    24    25    1
     2    25    18    1
     3    18    19   ar
     4    19    20   ar
     5    20    21   ar
     6    21     1    1
     7     1     2   ar
     8     2     3   ar
     9     3     4   ar
    10     4     5   ar
    11     5    11    1
    12    11    12   ar
    13    12    13   ar
    14    13    14   ar
    15    14    15   ar
    16    15    16   ar
    17    16    17    1
    18     5     6   ar
    19     6     7   ar
    20     7     8   ar
    21     8     9   ar
    22     9    10    2
    23    21    22   ar
    24    22    23   ar
    25    23    18   ar
    26     9     1   ar
    27     8     4   ar
    28    16    11   ar
@<TRIPOS>MOLECULE
*****
 25 28 0 0 0
SMALL
GASTEIGER

@<TRIPOS>ATOM
      1 N         142.3974  142.1903  160.8591 N.ar    1  UNL1       -0.2563
      2 C         142.1037  140.8714  161.5106 C.ar    1  UNL1        0.1851
      3 N         141.3276  140.8248  162.7934 N.ar    1  UNL1       -0.2244
      4 C         140.8452  142.0971  163.4247 C.ar    1  UNL1        0.0941
      5 C         140.0634  142.3626  164.6770 C.ar    1  UNL1        0.0245
      6 C         139.8738  143.8455  164.7996 C.ar    1  UNL1        0.0371
      7 S         140.5384  144.4965  163.6230 S.2     1  UNL1       -0.0802
      8 C         141.1388  143.4159  162.7732 C.ar    1  UNL1        0.1036
      9 C         141.9149  143.4626  161.4905 C.ar    1  UNL1        0.2733
     10 O         142.2085  144.7814  160.8390 O.2     1  UNL1       -0.2660
     11 C         139.5596  141.3269  165.6381 C.ar    1  UNL1       -0.0020
     12 C         140.1455  141.2341  167.0158 C.ar    1  UNL1       -0.0002
     13 C         139.6418  140.1985  167.9770 C.ar    1  UNL1       -0.0000
     14 C         138.5521  139.2556  167.5603 C.ar    1  UNL1       -0.0003
     15 C         137.9662  139.3484  166.1826 C.ar    1  UNL1       -0.0043
     16 C         138.4699  140.3841  165.2215 C.ar    1  UNL1       -0.0218
     17 C         137.8840  140.4768  163.8438 C.3     1  UNL1        0.0310
     18 C         144.7257  142.3301  157.0109 C.ar    1  UNL1        0.1388
     19 C         145.4247  142.5541  158.3190 C.ar    1  UNL1        0.0384
     20 C         144.6486  142.5075  159.6017 C.ar    1  UNL1        0.0208
     21 C         143.1734  142.2369  159.5764 C.ar    1  UNL1        0.0685
     22 C         142.4744  142.0129  158.2683 C.ar    1  UNL1        0.0208
     23 C         143.2504  142.0595  156.9855 C.ar    1  UNL1        0.0384
     24 C         146.5514  141.3422  155.4485 C.3     1  UNL1        0.2525
     25 O         145.5017  142.3767  155.7281 O.3     1  UNL1       -0.4714
@<TRIPOS>BOND
     1    24    25    1
     2    25    18    1
     3    18    19   ar
     4    19    20   ar
     5    20    21   ar
     6    21     1    1
     7     1     2   ar
     8     2     3   ar
     9     3     4   ar
    10     4     5   ar
    11     5    11    1
    12    11    12   ar
    13    12    13   ar
    14    13    14   ar
    15    14    15   ar
    16    15    16   ar
    17    16    17    1
    18     5     6   ar
    19     6     7   ar
    20     7     8   ar
    21     8     9   ar
    22     9    10    2
    23    21    22   ar
    24    22    23   ar
    25    23    18   ar
    26     9     1   ar
    27     8     4   ar
    28    16    11   ar
