@<TRIPOS>MOLECULE
*****
 30 33 0 0 0
SMALL
GASTEIGER

@<TRIPOS>ATOM
      1 C         143.2623  143.8836  163.4788 C.3     1  UNL1        0.0720
      2 C         142.3523  144.3307  162.3732 C.ar    1  UNL1        0.1247
      3 N         142.8536  144.3733  160.9601 N.ar    1  UNL1       -0.2119
      4 C         141.9436  144.8203  159.8546 C.ar    1  UNL1        0.1863
      5 N         142.4450  144.8629  158.4415 N.ar    1  UNL1       -0.2187
      6 C         141.5350  145.3099  157.3361 C.ar    1  UNL1        0.1585
      7 C         140.1237  145.7144  157.6437 C.ar    1  UNL1        0.2496
      8 N         139.6224  145.6718  159.0568 N.ar    1  UNL1       -0.2020
      9 C         140.5323  145.2247  160.1622 C.ar    1  UNL1        0.1760
     10 C         140.0310  145.1821  161.5754 C.ar    1  UNL1        0.2825
     11 O         138.6197  145.5866  161.8830 O.2     1  UNL1       -0.2652
     12 N         140.9410  144.7351  162.6808 N.ar    1  UNL1       -0.2827
     13 O         139.2137  146.1614  156.5381 O.3     1  UNL1       -0.4348
     14 C         139.1224  147.6161  156.1839 C.ar    1  UNL1        0.1474
     15 C         138.5322  148.5901  157.1600 C.ar    1  UNL1        0.0399
     16 C         138.4409  150.0449  156.8057 C.ar    1  UNL1        0.0328
     17 C         138.9398  150.5255  155.4753 C.ar    1  UNL1        0.1403
     18 F         138.8485  151.9802  155.1211 F       1  UNL1       -0.2042
     19 C         139.5301  149.5514  154.4992 C.ar    1  UNL1        0.0328
     20 C         139.6214  148.0968  154.8534 C.ar    1  UNL1        0.0399
     21 C         140.4396  144.6925  164.0940 C.3     1  UNL1        0.1115
     22 C         139.9634  143.3974  164.6821 C.3     1  UNL1        0.0388
     23 C         138.8035  142.6746  164.0639 C.3     1  UNL1        0.0048
     24 C         138.3273  141.3794  164.6520 C.3     1  UNL1        0.0174
     25 C         139.0111  140.8071  165.8583 C.3     1  UNL1        0.0720
     26 N         140.1710  141.5300  166.4764 N.3     1  UNL1       -0.2739
     27 C         140.6472  142.8251  165.8883 C.3     1  UNL1        0.0739
     28 C         140.8547  140.9577  167.6826 C.3     1  UNL1        0.0576
     29 C         140.0705  140.1579  168.6803 C.3     1  UNL1        0.0173
     30 C         142.3227  141.1851  167.8911 C.3     1  UNL1        0.0173
@<TRIPOS>BOND
     1     1     2    1
     2     2     3   ar
     3     3     4   ar
     4     4     5   ar
     5     5     6   ar
     6     6     7   ar
     7     7    13    1
     8    13    14    1
     9    14    15   ar
    10    15    16   ar
    11    16    17   ar
    12    17    18    1
    13    17    19   ar
    14    19    20   ar
    15     7     8   ar
    16     8     9   ar
    17     9    10   ar
    18    10    11    2
    19    10    12   ar
    20    12    21    1
    21    22    21    1
    22    22    23    1
    23    23    24    1
    24    24    25    1
    25    25    26    1
    26    26    28    1
    27    28    29    1
    28    28    30    1
    29    26    27    1
    30    12     2   ar
    31    27    22    1
    32     9     4   ar
    33    20    14   ar
@<TRIPOS>MOLECULE
*****
 30 33 0 0 0
SMALL
GASTEIGER

@<TRIPOS>ATOM
      1 C         144.9318  140.2616  164.2717 C.3     1  UNL1        0.0720
      2 C         144.1481  139.6648  163.1404 C.ar    1  UNL1        0.1247
      3 N         144.4660  140.0456  161.7249 N.ar    1  UNL1       -0.2119
      4 C         143.6823  139.4489  160.5936 C.ar    1  UNL1        0.1863
      5 N         144.0002  139.8297  159.1780 N.ar    1  UNL1       -0.2187
      6 C         143.2165  139.2330  158.0468 C.ar    1  UNL1        0.1585
      7 C         142.1149  138.2554  158.3312 C.ar    1  UNL1        0.2496
      8 N         141.7970  137.8746  159.7467 N.ar    1  UNL1       -0.2020
      9 C         142.5807  138.4713  160.8779 C.ar    1  UNL1        0.1760
     10 C         142.2628  138.0905  162.2936 C.ar    1  UNL1        0.2825
     11 O         141.1612  137.1129  162.5779 O.2     1  UNL1       -0.2652
     12 N         143.0465  138.6872  163.4248 N.ar    1  UNL1       -0.2827
     13 O         141.3312  137.6587  157.1998 O.3     1  UNL1       -0.4348
     14 C         141.8307  136.4234  156.5110 C.ar    1  UNL1        0.1474
     15 C         141.0482  135.8280  155.3782 C.ar    1  UNL1        0.0399
     16 C         141.5477  134.5926  154.6893 C.ar    1  UNL1        0.0328
     17 C         142.8296  133.9527  155.1333 C.ar    1  UNL1        0.1403
     18 F         143.3290  132.7174  154.4445 F       1  UNL1       -0.2042
     19 C         143.6121  134.5481  156.2662 C.ar    1  UNL1        0.0328
     20 C         143.1126  135.7834  156.9550 C.ar    1  UNL1        0.0399
     21 C         142.7286  138.3064  164.8404 C.3     1  UNL1        0.1115
     22 C         141.7183  139.0946  165.6203 C.3     1  UNL1        0.0388
     23 C         140.2568  138.7874  165.4799 C.3     1  UNL1        0.0048
     24 C         139.2465  139.5755  166.2597 C.3     1  UNL1        0.0174
     25 C         139.6978  140.6708  167.1800 C.3     1  UNL1        0.0720
     26 N         141.1592  140.9780  167.3203 N.3     1  UNL1       -0.2739
     27 C         142.1695  140.1898  166.5405 C.3     1  UNL1        0.0739
     28 C         141.6104  142.0732  168.2405 C.3     1  UNL1        0.0576
     29 C         140.6067  143.0216  168.8264 C.3     1  UNL1        0.0173
     30 C         143.0653  142.2202  168.5748 C.3     1  UNL1        0.0173
@<TRIPOS>BOND
     1     1     2    1
     2     2     3   ar
     3     3     4   ar
     4     4     5   ar
     5     5     6   ar
     6     6     7   ar
     7     7    13    1
     8    13    14    1
     9    14    15   ar
    10    15    16   ar
    11    16    17   ar
    12    17    18    1
    13    17    19   ar
    14    19    20   ar
    15     7     8   ar
    16     8     9   ar
    17     9    10   ar
    18    10    11    2
    19    10    12   ar
    20    12    21    1
    21    22    21    1
    22    22    23    1
    23    23    24    1
    24    24    25    1
    25    25    26    1
    26    26    28    1
    27    28    29    1
    28    28    30    1
    29    26    27    1
    30    12     2   ar
    31    27    22    1
    32     9     4   ar
    33    20    14   ar
@<TRIPOS>MOLECULE
*****
 30 33 0 0 0
SMALL
GASTEIGER

@<TRIPOS>ATOM
      1 C         143.4912  143.2273  161.3528 C.3     1  UNL1        0.0720
      2 C         142.5261  143.9915  160.4955 C.ar    1  UNL1        0.1247
      3 N         142.6853  143.9917  159.0040 N.ar    1  UNL1       -0.2119
      4 C         141.7202  144.7559  158.1468 C.ar    1  UNL1        0.1863
      5 N         141.8795  144.7561  156.6553 N.ar    1  UNL1       -0.2187
      6 C         140.9144  145.5202  155.7982 C.ar    1  UNL1        0.1585
      7 C         139.7901  146.2841  156.4325 C.ar    1  UNL1        0.2496
      8 N         139.6309  146.2839  157.9240 N.ar    1  UNL1       -0.2020
      9 C         140.5959  145.5197  158.7812 C.ar    1  UNL1        0.1760
     10 C         140.4367  145.5195  160.2727 C.ar    1  UNL1        0.2825
     11 O         139.3124  146.2834  160.9071 O.2     1  UNL1       -0.2652
     12 N         141.4018  144.7554  161.1299 N.ar    1  UNL1       -0.2827
     13 O         138.8250  147.0482  155.5753 O.3     1  UNL1       -0.4348
     14 C         139.0879  148.4890  155.2513 C.ar    1  UNL1        0.1474
     15 C         139.9229  148.8492  154.0584 C.ar    1  UNL1        0.0399
     16 C         140.1858  150.2900  153.7343 C.ar    1  UNL1        0.0328
     17 C         139.6136  151.3706  154.6032 C.ar    1  UNL1        0.1403
     18 F         139.8765  152.8114  154.2792 F       1  UNL1       -0.2042
     19 C         138.7786  151.0104  155.7961 C.ar    1  UNL1        0.0328
     20 C         138.5157  149.5697  156.1201 C.ar    1  UNL1        0.0399
     21 C         141.2425  144.7551  162.6215 C.3     1  UNL1        0.1115
     22 C         140.0657  144.0696  163.2499 C.3     1  UNL1        0.0388
     23 C         139.1604  144.8295  164.1736 C.3     1  UNL1        0.0048
     24 C         137.9835  144.1440  164.8021 C.3     1  UNL1        0.0174
     25 C         137.7119  142.6985  164.5069 C.3     1  UNL1        0.0720
     26 N         138.6172  141.9387  163.5833 N.3     1  UNL1       -0.2739
     27 C         139.7940  142.6242  162.9548 C.3     1  UNL1        0.0739
     28 C         138.3456  140.4934  163.2882 C.3     1  UNL1        0.0576
     29 C         138.4706  139.4692  164.3770 C.3     1  UNL1        0.0173
     30 C         137.9488  140.0721  161.9042 C.3     1  UNL1        0.0173
@<TRIPOS>BOND
     1     1     2    1
     2     2     3   ar
     3     3     4   ar
     4     4     5   ar
     5     5     6   ar
     6     6     7   ar
     7     7    13    1
     8    13    14    1
     9    14    15   ar
    10    15    16   ar
    11    16    17   ar
    12    17    18    1
    13    17    19   ar
    14    19    20   ar
    15     7     8   ar
    16     8     9   ar
    17     9    10   ar
    18    10    11    2
    19    10    12   ar
    20    12    21    1
    21    22    21    1
    22    22    23    1
    23    23    24    1
    24    24    25    1
    25    25    26    1
    26    26    28    1
    27    28    29    1
    28    28    30    1
    29    26    27    1
    30    12     2   ar
    31    27    22    1
    32     9     4   ar
    33    20    14   ar
@<TRIPOS>MOLECULE
*****
 30 33 0 0 0
SMALL
GASTEIGER

@<TRIPOS>ATOM
      1 C         143.2495  143.8809  164.0536 C.3     1  UNL1        0.0720
      2 C         142.3710  144.0853  162.8550 C.ar    1  UNL1        0.1247
      3 N         142.9671  144.0807  161.4786 N.ar    1  UNL1       -0.2119
      4 C         142.0886  144.2852  160.2800 C.ar    1  UNL1        0.1863
      5 N         142.6848  144.2806  158.9036 N.ar    1  UNL1       -0.2187
      6 C         141.8063  144.4850  157.7052 C.ar    1  UNL1        0.1585
      7 C         140.3316  144.6940  157.8831 C.ar    1  UNL1        0.2496
      8 N         139.7354  144.6986  159.2595 N.ar    1  UNL1       -0.2020
      9 C         140.6139  144.4942  160.4579 C.ar    1  UNL1        0.1760
     10 C         140.0178  144.4987  161.8344 C.ar    1  UNL1        0.2825
     11 O         138.5431  144.7078  162.0124 O.2     1  UNL1       -0.2652
     12 N         140.8963  144.2943  163.0329 N.ar    1  UNL1       -0.2827
     13 O         139.4531  144.8985  156.6845 O.3     1  UNL1       -0.4348
     14 C         139.5890  146.1432  155.8586 C.ar    1  UNL1        0.1474
     15 C         140.3612  146.1097  154.5730 C.ar    1  UNL1        0.0399
     16 C         140.4971  147.3545  153.7471 C.ar    1  UNL1        0.0328
     17 C         139.8608  148.6326  154.2067 C.ar    1  UNL1        0.1403
     18 F         139.9966  149.8773  153.3807 F       1  UNL1       -0.2042
     19 C         139.0885  148.6661  155.4922 C.ar    1  UNL1        0.0328
     20 C         138.9527  147.4214  156.3181 C.ar    1  UNL1        0.0399
     21 C         140.3001  144.2989  164.4094 C.3     1  UNL1        0.1115
     22 C         140.0890  143.0057  165.1396 C.3     1  UNL1        0.0388
     23 C         140.3855  142.9161  166.6073 C.3     1  UNL1        0.0048
     24 C         140.1744  141.6229  167.3375 C.3     1  UNL1        0.0174
     25 C         139.6668  140.4194  166.5999 C.3     1  UNL1        0.0720
     26 N         139.3704  140.5090  165.1322 N.3     1  UNL1       -0.2739
     27 C         139.5815  141.8022  164.4021 C.3     1  UNL1        0.0739
     28 C         138.8628  139.3055  164.3948 C.3     1  UNL1        0.0576
     29 C         138.3838  139.4399  162.9797 C.3     1  UNL1        0.0173
     30 C         138.8342  137.9676  165.0724 C.3     1  UNL1        0.0173
@<TRIPOS>BOND
     1     1     2    1
     2     2     3   ar
     3     3     4   ar
     4     4     5   ar
     5     5     6   ar
     6     6     7   ar
     7     7    13    1
     8    13    14    1
     9    14    15   ar
    10    15    16   ar
    11    16    17   ar
    12    17    18    1
    13    17    19   ar
    14    19    20   ar
    15     7     8   ar
    16     8     9   ar
    17     9    10   ar
    18    10    11    2
    19    10    12   ar
    20    12    21    1
    21    22    21    1
    22    22    23    1
    23    23    24    1
    24    24    25    1
    25    25    26    1
    26    26    28    1
    27    28    29    1
    28    28    30    1
    29    26    27    1
    30    12     2   ar
    31    27    22    1
    32     9     4   ar
    33    20    14   ar
@<TRIPOS>MOLECULE
*****
 30 33 0 0 0
SMALL
GASTEIGER

@<TRIPOS>ATOM
      1 C         143.8386  139.2796  164.8089 C.3     1  UNL1        0.0720
      2 C         143.9629  140.0759  163.5438 C.ar    1  UNL1        0.1247
      3 N         143.8946  139.3861  162.2136 N.ar    1  UNL1       -0.2119
      4 C         144.0189  140.1824  160.9484 C.ar    1  UNL1        0.1863
      5 N         143.9506  139.4926  159.6183 N.ar    1  UNL1       -0.2187
      6 C         144.0749  140.2890  158.3532 C.ar    1  UNL1        0.1585
      7 C         144.2675  141.7751  158.4184 C.ar    1  UNL1        0.2496
      8 N         144.3358  142.4649  159.7486 N.ar    1  UNL1       -0.2020
      9 C         144.2115  141.6686  161.0136 C.ar    1  UNL1        0.1760
     10 C         144.2798  142.3584  162.3439 C.ar    1  UNL1        0.2825
     11 O         144.4725  143.8445  162.4091 O.2     1  UNL1       -0.2652
     12 N         144.1555  141.5621  163.6089 N.ar    1  UNL1       -0.2827
     13 O         144.3918  142.5715  157.1533 O.3     1  UNL1       -0.4348
     14 C         145.5454  142.3302  156.2255 C.ar    1  UNL1        0.1474
     15 C         146.9494  142.3514  156.7532 C.ar    1  UNL1        0.0399
     16 C         148.1031  142.1101  155.8253 C.ar    1  UNL1        0.0328
     17 C         147.8528  141.8476  154.3698 C.ar    1  UNL1        0.1403
     18 F         149.0064  141.6064  153.4420 F       1  UNL1       -0.2042
     19 C         146.4488  141.8264  153.8422 C.ar    1  UNL1        0.0328
     20 C         145.2952  142.0677  154.7699 C.ar    1  UNL1        0.0399
     21 C         144.2239  142.2519  164.9392 C.3     1  UNL1        0.1115
     22 C         142.9796  142.4256  165.7587 C.3     1  UNL1        0.0388
     23 C         143.0133  142.1714  167.2366 C.3     1  UNL1        0.0048
     24 C         141.7690  142.3452  168.0561 C.3     1  UNL1        0.0174
     25 C         140.4910  142.7732  167.3976 C.3     1  UNL1        0.0720
     26 N         140.4573  143.0274  165.9197 N.3     1  UNL1       -0.2739
     27 C         141.7016  142.8536  165.1003 C.3     1  UNL1        0.0739
     28 C         139.1793  143.4554  165.2613 C.3     1  UNL1        0.0576
     29 C         138.7258  144.8818  165.3600 C.3     1  UNL1        0.0173
     30 C         138.3547  142.4569  164.5041 C.3     1  UNL1        0.0173
@<TRIPOS>BOND
     1     1     2    1
     2     2     3   ar
     3     3     4   ar
     4     4     5   ar
     5     5     6   ar
     6     6     7   ar
     7     7    13    1
     8    13    14    1
     9    14    15   ar
    10    15    16   ar
    11    16    17   ar
    12    17    18    1
    13    17    19   ar
    14    19    20   ar
    15     7     8   ar
    16     8     9   ar
    17     9    10   ar
    18    10    11    2
    19    10    12   ar
    20    12    21    1
    21    22    21    1
    22    22    23    1
    23    23    24    1
    24    24    25    1
    25    25    26    1
    26    26    28    1
    27    28    29    1
    28    28    30    1
    29    26    27    1
    30    12     2   ar
    31    27    22    1
    32     9     4   ar
    33    20    14   ar
@<TRIPOS>MOLECULE
*****
 30 33 0 0 0
SMALL
GASTEIGER

@<TRIPOS>ATOM
      1 C         144.9416  140.1856  164.1956 C.3     1  UNL1        0.0720
      2 C         144.1414  139.6023  163.0688 C.ar    1  UNL1        0.1247
      3 N         144.4791  139.9516  161.6497 N.ar    1  UNL1       -0.2119
      4 C         143.6789  139.3684  160.5229 C.ar    1  UNL1        0.1863
      5 N         144.0166  139.7177  159.1038 N.ar    1  UNL1       -0.2187
      6 C         143.2164  139.1345  157.9772 C.ar    1  UNL1        0.1585
      7 C         142.0784  138.2020  158.2696 C.ar    1  UNL1        0.2496
      8 N         141.7407  137.8527  159.6887 N.ar    1  UNL1       -0.2020
      9 C         142.5409  138.4359  160.8153 C.ar    1  UNL1        0.1760
     10 C         142.2032  138.0866  162.2345 C.ar    1  UNL1        0.2825
     11 O         141.0653  137.1541  162.5270 O.2     1  UNL1       -0.2652
     12 N         143.0034  138.6698  163.3612 N.ar    1  UNL1       -0.2827
     13 O         141.2782  137.6187  157.1428 O.3     1  UNL1       -0.4348
     14 C         141.7729  136.3983  156.4247 C.ar    1  UNL1        0.1474
     15 C         140.9806  135.8243  155.2877 C.ar    1  UNL1        0.0399
     16 C         141.4754  134.6037  154.5696 C.ar    1  UNL1        0.0328
     17 C         142.7624  133.9573  154.9885 C.ar    1  UNL1        0.1403
     18 F         143.2572  132.7368  154.2705 F       1  UNL1       -0.2042
     19 C         143.5548  134.5313  156.1255 C.ar    1  UNL1        0.0328
     20 C         143.0600  135.7517  156.8436 C.ar    1  UNL1        0.0399
     21 C         142.6657  138.3205  164.7804 C.3     1  UNL1        0.1115
     22 C         141.9970  139.3324  165.6630 C.3     1  UNL1        0.0388
     23 C         142.3185  139.3792  167.1275 C.3     1  UNL1        0.0048
     24 C         141.6498  140.3911  168.0101 C.3     1  UNL1        0.0174
     25 C         140.6596  141.3561  167.4283 C.3     1  UNL1        0.0720
     26 N         140.3382  141.3092  165.9639 N.3     1  UNL1       -0.2739
     27 C         141.0069  140.2973  165.0813 C.3     1  UNL1        0.0739
     28 C         139.3481  142.2741  165.3821 C.3     1  UNL1        0.0576
     29 C         138.1240  141.7621  164.6825 C.3     1  UNL1        0.0173
     30 C         139.5820  143.7511  165.5000 C.3     1  UNL1        0.0173
@<TRIPOS>BOND
     1     1     2    1
     2     2     3   ar
     3     3     4   ar
     4     4     5   ar
     5     5     6   ar
     6     6     7   ar
     7     7    13    1
     8    13    14    1
     9    14    15   ar
    10    15    16   ar
    11    16    17   ar
    12    17    18    1
    13    17    19   ar
    14    19    20   ar
    15     7     8   ar
    16     8     9   ar
    17     9    10   ar
    18    10    11    2
    19    10    12   ar
    20    12    21    1
    21    22    21    1
    22    22    23    1
    23    23    24    1
    24    24    25    1
    25    25    26    1
    26    26    28    1
    27    28    29    1
    28    28    30    1
    29    26    27    1
    30    12     2   ar
    31    27    22    1
    32     9     4   ar
    33    20    14   ar
@<TRIPOS>MOLECULE
*****
 30 33 0 0 0
SMALL
GASTEIGER

@<TRIPOS>ATOM
      1 C         139.3855  138.5502  160.9618 C.3     1  UNL1        0.0720
      2 C         139.5556  138.9263  162.4039 C.ar    1  UNL1        0.1247
      3 N         138.5631  138.4535  163.4244 N.ar    1  UNL1       -0.2119
      4 C         138.7332  138.8296  164.8665 C.ar    1  UNL1        0.1863
      5 N         137.7407  138.3568  165.8870 N.ar    1  UNL1       -0.2187
      6 C         137.9108  138.7329  167.3290 C.ar    1  UNL1        0.1585
      7 C         139.0734  139.5818  167.7506 C.ar    1  UNL1        0.2496
      8 N         140.0659  140.0546  166.7302 N.ar    1  UNL1       -0.2020
      9 C         139.8958  139.6785  165.2881 C.ar    1  UNL1        0.1760
     10 C         140.8883  140.1513  164.2676 C.ar    1  UNL1        0.2825
     11 O         142.0509  141.0002  164.6892 O.2     1  UNL1       -0.2652
     12 N         140.7182  139.7752  162.8255 N.ar    1  UNL1       -0.2827
     13 O         139.2435  139.9579  169.1928 O.3     1  UNL1       -0.4348
     14 C         140.3467  140.8890  169.5999 C.ar    1  UNL1        0.1474
     15 C         140.1027  142.3685  169.6407 C.ar    1  UNL1        0.0399
     16 C         141.2060  143.2997  170.0479 C.ar    1  UNL1        0.0328
     17 C         142.5532  142.7514  170.4143 C.ar    1  UNL1        0.1403
     18 F         143.6564  143.6826  170.8215 F       1  UNL1       -0.2042
     19 C         142.7972  141.2720  170.3735 C.ar    1  UNL1        0.0328
     20 C         141.6941  140.3408  169.9664 C.ar    1  UNL1        0.0399
     21 C         141.7107  140.2480  161.8050 C.3     1  UNL1        0.1115
     22 C         141.6534  141.6596  161.3008 C.3     1  UNL1        0.0388
     23 C         142.5959  142.1105  160.2245 C.3     1  UNL1        0.0048
     24 C         142.5386  143.5220  159.7204 C.3     1  UNL1        0.0174
     25 C         141.5388  144.4828  160.2926 C.3     1  UNL1        0.0720
     26 N         140.5963  144.0319  161.3689 N.3     1  UNL1       -0.2739
     27 C         140.6536  142.6203  161.8730 C.3     1  UNL1        0.0739
     28 C         139.5965  144.9926  161.9410 C.3     1  UNL1        0.0576
     29 C         139.6715  146.4495  161.5920 C.3     1  UNL1        0.0173
     30 C         138.5216  144.4964  162.8622 C.3     1  UNL1        0.0173
@<TRIPOS>BOND
     1     1     2    1
     2     2     3   ar
     3     3     4   ar
     4     4     5   ar
     5     5     6   ar
     6     6     7   ar
     7     7    13    1
     8    13    14    1
     9    14    15   ar
    10    15    16   ar
    11    16    17   ar
    12    17    18    1
    13    17    19   ar
    14    19    20   ar
    15     7     8   ar
    16     8     9   ar
    17     9    10   ar
    18    10    11    2
    19    10    12   ar
    20    12    21    1
    21    22    21    1
    22    22    23    1
    23    23    24    1
    24    24    25    1
    25    25    26    1
    26    26    28    1
    27    28    29    1
    28    28    30    1
    29    26    27    1
    30    12     2   ar
    31    27    22    1
    32     9     4   ar
    33    20    14   ar
@<TRIPOS>MOLECULE
*****
 30 33 0 0 0
SMALL
GASTEIGER

@<TRIPOS>ATOM
      1 C         144.5401  137.8548  155.2998 C.3     1  UNL1        0.0720
      2 C         143.2861  137.9411  156.1184 C.ar    1  UNL1        0.1247
      3 N         143.3023  138.6443  157.4433 N.ar    1  UNL1       -0.2119
      4 C         142.0483  138.7306  158.2619 C.ar    1  UNL1        0.1863
      5 N         142.0644  139.4337  159.5868 N.ar    1  UNL1       -0.2187
      6 C         140.8105  139.5200  160.4054 C.ar    1  UNL1        0.1585
      7 C         139.5403  138.9032  159.8991 C.ar    1  UNL1        0.2496
      8 N         139.5242  138.2001  158.5742 N.ar    1  UNL1       -0.2020
      9 C         140.7781  138.1138  157.7557 C.ar    1  UNL1        0.1760
     10 C         140.7620  137.4106  156.4307 C.ar    1  UNL1        0.2825
     11 O         139.4919  136.7938  155.9244 O.2     1  UNL1       -0.2652
     12 N         142.0160  137.3243  155.6121 N.ar    1  UNL1       -0.2827
     13 O         138.2863  138.9895  160.7177 O.3     1  UNL1       -0.4348
     14 C         138.3674  138.9959  162.2155 C.ar    1  UNL1        0.1474
     15 C         137.9637  140.2197  162.9832 C.ar    1  UNL1        0.0399
     16 C         138.0448  140.2260  164.4811 C.ar    1  UNL1        0.0328
     17 C         138.5296  139.0086  165.2111 C.ar    1  UNL1        0.1403
     18 F         138.6107  139.0150  166.7089 F       1  UNL1       -0.2042
     19 C         138.9333  137.7849  164.4434 C.ar    1  UNL1        0.0328
     20 C         138.8522  137.7785  162.9456 C.ar    1  UNL1        0.0399
     21 C         141.9999  136.6212  154.2872 C.3     1  UNL1        0.1115
     22 C         142.2835  135.1500  154.2154 C.3     1  UNL1        0.0388
     23 C         141.7280  134.3333  153.0864 C.3     1  UNL1        0.0048
     24 C         142.0116  132.8621  153.0147 C.3     1  UNL1        0.0174
     25 C         142.8508  132.2076  154.0719 C.3     1  UNL1        0.0720
     26 N         143.4062  133.0243  155.2008 N.3     1  UNL1       -0.2739
     27 C         143.1226  134.4955  155.2725 C.3     1  UNL1        0.0739
     28 C         144.2453  132.3698  156.2579 C.3     1  UNL1        0.0576
     29 C         144.9641  131.0879  155.9579 C.3     1  UNL1        0.0173
     30 C         144.3655  132.9972  157.6151 C.3     1  UNL1        0.0173
@<TRIPOS>BOND
     1     1     2    1
     2     2     3   ar
     3     3     4   ar
     4     4     5   ar
     5     5     6   ar
     6     6     7   ar
     7     7    13    1
     8    13    14    1
     9    14    15   ar
    10    15    16   ar
    11    16    17   ar
    12    17    18    1
    13    17    19   ar
    14    19    20   ar
    15     7     8   ar
    16     8     9   ar
    17     9    10   ar
    18    10    11    2
    19    10    12   ar
    20    12    21    1
    21    22    21    1
    22    22    23    1
    23    23    24    1
    24    24    25    1
    25    25    26    1
    26    26    28    1
    27    28    29    1
    28    28    30    1
    29    26    27    1
    30    12     2   ar
    31    27    22    1
    32     9     4   ar
    33    20    14   ar
@<TRIPOS>MOLECULE
*****
 30 33 0 0 0
SMALL
GASTEIGER

@<TRIPOS>ATOM
      1 C         139.6052  138.4738  157.6003 C.3     1  UNL1        0.0720
      2 C         140.3615  138.4149  158.8944 C.ar    1  UNL1        0.1247
      3 N         139.6192  138.2899  160.1918 N.ar    1  UNL1       -0.2119
      4 C         140.3755  138.2310  161.4859 C.ar    1  UNL1        0.1863
      5 N         139.6333  138.1060  162.7834 N.ar    1  UNL1       -0.2187
      6 C         140.3895  138.0471  164.0774 C.ar    1  UNL1        0.1585
      7 C         141.8881  138.1134  164.0740 C.ar    1  UNL1        0.2496
      8 N         142.6303  138.2384  162.7765 N.ar    1  UNL1       -0.2020
      9 C         141.8740  138.2973  161.4825 C.ar    1  UNL1        0.1760
     10 C         142.6163  138.4223  160.1850 C.ar    1  UNL1        0.2825
     11 O         144.1148  138.4886  160.1816 O.2     1  UNL1       -0.2652
     12 N         141.8600  138.4812  158.8910 N.ar    1  UNL1       -0.2827
     13 O         142.6443  138.0545  165.3681 O.3     1  UNL1       -0.4348
     14 C         142.7114  139.2636  166.2532 C.ar    1  UNL1        0.1474
     15 C         142.6294  139.1081  167.7429 C.ar    1  UNL1        0.0399
     16 C         142.6965  140.3173  168.6281 C.ar    1  UNL1        0.0328
     17 C         142.8454  141.6819  168.0236 C.ar    1  UNL1        0.1403
     18 F         142.9124  142.8910  168.9087 F       1  UNL1       -0.2042
     19 C         142.9273  141.8375  166.5339 C.ar    1  UNL1        0.0328
     20 C         142.8603  140.6284  165.6488 C.ar    1  UNL1        0.0399
     21 C         142.6023  138.6062  157.5935 C.3     1  UNL1        0.1115
     22 C         142.7061  137.4271  156.6722 C.3     1  UNL1        0.0388
     23 C         142.5356  137.6132  155.1935 C.3     1  UNL1        0.0048
     24 C         142.6394  136.4341  154.2722 C.3     1  UNL1        0.0174
     25 C         142.9138  135.0687  154.8296 C.3     1  UNL1        0.0720
     26 N         143.0844  134.8826  156.3082 N.3     1  UNL1       -0.2739
     27 C         142.9805  136.0618  157.2295 C.3     1  UNL1        0.0739
     28 C         143.3588  133.5173  156.8655 C.3     1  UNL1        0.0576
     29 C         144.4352  133.3290  157.8930 C.3     1  UNL1        0.0173
     30 C         142.5567  132.3401  156.3952 C.3     1  UNL1        0.0173
@<TRIPOS>BOND
     1     1     2    1
     2     2     3   ar
     3     3     4   ar
     4     4     5   ar
     5     5     6   ar
     6     6     7   ar
     7     7    13    1
     8    13    14    1
     9    14    15   ar
    10    15    16   ar
    11    16    17   ar
    12    17    18    1
    13    17    19   ar
    14    19    20   ar
    15     7     8   ar
    16     8     9   ar
    17     9    10   ar
    18    10    11    2
    19    10    12   ar
    20    12    21    1
    21    22    21    1
    22    22    23    1
    23    23    24    1
    24    24    25    1
    25    25    26    1
    26    26    28    1
    27    28    29    1
    28    28    30    1
    29    26    27    1
    30    12     2   ar
    31    27    22    1
    32     9     4   ar
    33    20    14   ar
