@<TRIPOS>MOLECULE
*****
 36 40 0 0 0
SMALL
GASTEIGER

@<TRIPOS>ATOM
      1 C         140.7006  138.8160  160.7532 C.ar    1  UNL1        0.1651
      2 N         140.6020  140.2919  161.0027 N.ar    1  UNL1       -0.2121
      3 C         140.0099  140.7979  162.2846 C.ar    1  UNL1        0.1318
      4 C         139.5163  139.8280  163.3171 C.ar    1  UNL1        0.0491
      5 C         138.9241  140.3340  164.5990 C.ar    1  UNL1        0.0041
      6 C         138.4306  139.3642  165.6314 C.ar    1  UNL1        0.0002
      7 C         138.5292  137.8884  165.3818 C.ar    1  UNL1        0.0015
      8 C         139.1214  137.3824  164.0999 C.ar    1  UNL1        0.0192
      9 C         139.6149  138.3522  163.0675 C.ar    1  UNL1        0.0856
     10 N         140.2071  137.8462  161.7856 N.ar    1  UNL1       -0.2264
     11 C         142.4772  137.2981  156.9075 C.ar    1  UNL1        0.1342
     12 C         141.0834  137.8522  156.9225 C.ar    1  UNL1        0.0239
     13 C         140.4912  138.3582  158.2044 C.ar    1  UNL1        0.0063
     14 C         141.2928  138.3100  159.4713 C.ar    1  UNL1        0.0550
     15 C         142.6867  137.7558  159.4563 C.ar    1  UNL1        0.1020
     16 N         143.2788  137.2498  158.1744 N.ar    1  UNL1       -0.2392
     17 N         144.5313  136.9813  155.3486 N.am    1  UNL1       -0.3241
     18 C         143.0693  136.7921  155.6256 C.2     1  UNL1        0.2605
     19 O         142.1994  136.0969  154.6205 O.2     1  UNL1       -0.2687
     20 H         144.9200  136.6492  154.5073 H       1  UNL1        0.1453
     21 H         145.1022  137.4375  156.0083 H       1  UNL1        0.1453
     22 C         138.8255  141.8098  164.8485 C.ar    1  UNL1        0.0001
     23 C         139.8785  142.5054  165.6592 C.ar    1  UNL1        0.0000
     24 C         139.7799  143.9813  165.9087 C.ar    1  UNL1        0.0000
     25 C         138.6283  144.7615  165.3474 C.ar    1  UNL1        0.0000
     26 C         137.5753  144.0658  164.5367 C.ar    1  UNL1        0.0000
     27 C         137.6739  142.5900  164.2872 C.ar    1  UNL1        0.0000
     28 N         139.9112  142.2736  162.5342 N.pl3   1  UNL1       -0.3131
     29 H         139.1065  142.6482  162.9601 H       1  UNL1        0.1485
     30 C         141.0387  143.1789  162.1348 C.3     1  UNL1        0.1348
     31 C         142.1737  143.4267  163.0836 C.ar    1  UNL1        0.0788
     32 C         142.5688  144.8318  163.4296 C.ar    1  UNL1        0.0165
     33 C         143.7038  145.0797  164.3785 C.ar    1  UNL1        0.0029
     34 C         144.4437  143.9225  164.9814 C.ar    1  UNL1        0.0207
     35 C         144.0485  142.5174  164.6354 C.ar    1  UNL1        0.0985
     36 N         142.9136  142.2695  163.6865 N.ar    1  UNL1       -0.2464
@<TRIPOS>BOND
     1    17    18   am
     2    18    19    2
     3    18    11    1
     4    11    12   ar
     5    12    13   ar
     6    13    14   ar
     7    14     1    1
     8     1     2   ar
     9     2     3   ar
    10     3    28    1
    11    28    30    1
    12    30    31    1
    13    31    32   ar
    14    32    33   ar
    15    33    34   ar
    16    34    35   ar
    17    35    36   ar
    18     3     4   ar
    19     4     5   ar
    20     5    22    1
    21    22    23   ar
    22    23    24   ar
    23    24    25   ar
    24    25    26   ar
    25    26    27   ar
    26     5     6   ar
    27     6     7   ar
    28     7     8   ar
    29     8     9   ar
    30     9    10   ar
    31    14    15   ar
    32    15    16   ar
    33    16    11   ar
    34    10     1   ar
    35    36    31   ar
    36     9     4   ar
    37    27    22   ar
    38    17    20    1
    39    17    21    1
    40    28    29    1
@<TRIPOS>MOLECULE
*****
 36 40 0 0 0
SMALL
GASTEIGER

@<TRIPOS>ATOM
      1 C         141.1943  138.9600  163.2170 C.ar    1  UNL1        0.1651
      2 N         142.1414  139.7369  164.0828 N.ar    1  UNL1       -0.2121
      3 C         141.7670  140.0642  165.4980 C.ar    1  UNL1        0.1318
      4 C         140.4456  139.6146  166.0473 C.ar    1  UNL1        0.0491
      5 C         140.0712  139.9419  167.4625 C.ar    1  UNL1        0.0041
      6 C         138.7498  139.4923  168.0119 C.ar    1  UNL1        0.0002
      7 C         137.8029  138.7155  167.1461 C.ar    1  UNL1        0.0015
      8 C         138.1772  138.3882  165.7309 C.ar    1  UNL1        0.0192
      9 C         139.4986  138.8377  165.1815 C.ar    1  UNL1        0.0856
     10 N         139.8730  138.5104  163.7664 N.ar    1  UNL1       -0.2264
     11 C         142.3175  137.9780  158.9715 C.ar    1  UNL1        0.1342
     12 C         141.0067  138.6453  159.2653 C.ar    1  UNL1        0.0239
     13 C         140.6323  138.9726  160.6805 C.ar    1  UNL1        0.0063
     14 C         141.5687  138.6327  161.8018 C.ar    1  UNL1        0.0550
     15 C         142.8796  137.9653  161.5080 C.ar    1  UNL1        0.1020
     16 N         143.2540  137.6380  160.0928 N.ar    1  UNL1       -0.2392
     17 N         143.6846  138.5059  156.8262 N.am    1  UNL1       -0.3241
     18 C         142.6919  137.6507  157.5563 C.2     1  UNL1        0.2605
     19 O         142.0735  136.4682  156.8713 O.2     1  UNL1       -0.2687
     20 H         143.9303  138.2911  155.8974 H       1  UNL1        0.1453
     21 H         144.0904  139.2820  157.2758 H       1  UNL1        0.1453
     22 C         141.0183  140.7188  168.3283 C.ar    1  UNL1        0.0001
     23 C         140.8873  142.2093  168.4335 C.ar    1  UNL1        0.0000
     24 C         141.8343  142.9862  169.2993 C.ar    1  UNL1        0.0000
     25 C         142.9124  142.2725  170.0599 C.ar    1  UNL1        0.0000
     26 C         143.0433  140.7819  169.9547 C.ar    1  UNL1        0.0000
     27 C         142.0963  140.0051  169.0889 C.ar    1  UNL1        0.0000
     28 N         142.7140  140.8411  166.3638 N.pl3   1  UNL1       -0.3131
     29 H         142.7413  140.6768  167.3341 H       1  UNL1        0.1485
     30 C         143.6194  141.8682  165.7512 C.3     1  UNL1        0.1348
     31 C         143.0365  143.0471  165.0298 C.ar    1  UNL1        0.0788
     32 C         143.9368  144.0020  164.3035 C.ar    1  UNL1        0.0165
     33 C         143.3539  145.1809  163.5820 C.ar    1  UNL1        0.0029
     34 C         141.8707  145.4048  163.5868 C.ar    1  UNL1        0.0207
     35 C         140.9704  144.4498  164.3131 C.ar    1  UNL1        0.0985
     36 N         141.5533  143.2709  165.0346 N.ar    1  UNL1       -0.2464
@<TRIPOS>BOND
     1    17    18   am
     2    18    19    2
     3    18    11    1
     4    11    12   ar
     5    12    13   ar
     6    13    14   ar
     7    14     1    1
     8     1     2   ar
     9     2     3   ar
    10     3    28    1
    11    28    30    1
    12    30    31    1
    13    31    32   ar
    14    32    33   ar
    15    33    34   ar
    16    34    35   ar
    17    35    36   ar
    18     3     4   ar
    19     4     5   ar
    20     5    22    1
    21    22    23   ar
    22    23    24   ar
    23    24    25   ar
    24    25    26   ar
    25    26    27   ar
    26     5     6   ar
    27     6     7   ar
    28     7     8   ar
    29     8     9   ar
    30     9    10   ar
    31    14    15   ar
    32    15    16   ar
    33    16    11   ar
    34    10     1   ar
    35    36    31   ar
    36     9     4   ar
    37    27    22   ar
    38    17    20    1
    39    17    21    1
    40    28    29    1
@<TRIPOS>MOLECULE
*****
 36 40 0 0 0
SMALL
GASTEIGER

@<TRIPOS>ATOM
      1 C         138.8973  142.2481  160.2236 C.ar    1  UNL1        0.1651
      2 N         140.3467  142.1945  160.6064 N.ar    1  UNL1       -0.2121
      3 C         140.7908  142.7242  161.9377 C.ar    1  UNL1        0.1318
      4 C         139.7856  143.3076  162.8860 C.ar    1  UNL1        0.0491
      5 C         140.2298  143.8373  164.2172 C.ar    1  UNL1        0.0041
      6 C         139.2246  144.4207  165.1655 C.ar    1  UNL1        0.0002
      7 C         137.7754  144.4743  164.7826 C.ar    1  UNL1        0.0015
      8 C         137.3312  143.9446  163.4514 C.ar    1  UNL1        0.0192
      9 C         138.3363  143.3612  162.5031 C.ar    1  UNL1        0.0856
     10 N         137.8922  142.8315  161.1719 N.ar    1  UNL1       -0.2264
     11 C         137.5648  140.6590  156.2299 C.ar    1  UNL1        0.1342
     12 C         137.4212  142.1191  156.5419 C.ar    1  UNL1        0.0239
     13 C         137.8654  142.6488  157.8732 C.ar    1  UNL1        0.0063
     14 C         138.4532  141.7184  158.8924 C.ar    1  UNL1        0.0550
     15 C         138.5968  140.2582  158.5804 C.ar    1  UNL1        0.1020
     16 N         138.1527  139.7285  157.2492 N.ar    1  UNL1       -0.2392
     17 N         136.3804  138.8272  154.8187 N.am    1  UNL1       -0.3241
     18 C         137.1207  140.1293  154.8987 C.2     1  UNL1        0.2605
     19 O         137.4169  140.9017  153.6474 O.2     1  UNL1       -0.2687
     20 H         136.0889  138.4795  153.9450 H       1  UNL1        0.1453
     21 H         136.1860  138.3202  155.6400 H       1  UNL1        0.1453
     22 C         141.6791  143.7836  164.6001 C.ar    1  UNL1        0.0001
     23 C         142.6448  144.7752  164.0220 C.ar    1  UNL1        0.0000
     24 C         144.0942  144.7215  164.4049 C.ar    1  UNL1        0.0000
     25 C         144.5778  143.6762  165.3659 C.ar    1  UNL1        0.0000
     26 C         143.6120  142.6845  165.9439 C.ar    1  UNL1        0.0000
     27 C         142.1628  142.7383  165.5610 C.ar    1  UNL1        0.0000
     28 N         142.2401  142.6705  162.3206 N.pl3   1  UNL1       -0.3131
     29 H         142.6641  143.4468  162.7529 H       1  UNL1        0.1485
     30 C         143.0435  141.4341  162.0448 C.3     1  UNL1        0.1348
     31 C         143.3559  140.4788  163.1583 C.ar    1  UNL1        0.0788
     32 C         144.7793  140.2478  163.5710 C.ar    1  UNL1        0.0165
     33 C         145.0918  139.2925  164.6845 C.ar    1  UNL1        0.0029
     34 C         143.9807  138.5682  165.3852 C.ar    1  UNL1        0.0207
     35 C         142.5572  138.7993  164.9724 C.ar    1  UNL1        0.0985
     36 N         142.2448  139.7545  163.8590 N.ar    1  UNL1       -0.2464
@<TRIPOS>BOND
     1    17    18   am
     2    18    19    2
     3    18    11    1
     4    11    12   ar
     5    12    13   ar
     6    13    14   ar
     7    14     1    1
     8     1     2   ar
     9     2     3   ar
    10     3    28    1
    11    28    30    1
    12    30    31    1
    13    31    32   ar
    14    32    33   ar
    15    33    34   ar
    16    34    35   ar
    17    35    36   ar
    18     3     4   ar
    19     4     5   ar
    20     5    22    1
    21    22    23   ar
    22    23    24   ar
    23    24    25   ar
    24    25    26   ar
    25    26    27   ar
    26     5     6   ar
    27     6     7   ar
    28     7     8   ar
    29     8     9   ar
    30     9    10   ar
    31    14    15   ar
    32    15    16   ar
    33    16    11   ar
    34    10     1   ar
    35    36    31   ar
    36     9     4   ar
    37    27    22   ar
    38    17    20    1
    39    17    21    1
    40    28    29    1
@<TRIPOS>MOLECULE
*****
 36 40 0 0 0
SMALL
GASTEIGER

@<TRIPOS>ATOM
      1 C         142.8491  139.7893  162.3227 C.ar    1  UNL1        0.1651
      2 N         142.0444  139.2161  163.4514 N.ar    1  UNL1       -0.2121
      3 C         142.0777  139.8671  164.8024 C.ar    1  UNL1        0.1318
      4 C         142.9156  141.0913  165.0246 C.ar    1  UNL1        0.0491
      5 C         142.9489  141.7423  166.3755 C.ar    1  UNL1        0.0041
      6 C         143.7868  142.9665  166.5977 C.ar    1  UNL1        0.0002
      7 C         144.5914  143.5396  165.4690 C.ar    1  UNL1        0.0015
      8 C         144.5581  142.8885  164.1180 C.ar    1  UNL1        0.0192
      9 C         143.7202  141.6644  163.8958 C.ar    1  UNL1        0.0856
     10 N         143.6870  141.0134  162.5449 N.ar    1  UNL1       -0.2264
     11 C         142.7493  137.8362  158.2698 C.ar    1  UNL1        0.1342
     12 C         142.3266  139.2671  158.4234 C.ar    1  UNL1        0.0239
     13 C         142.3599  139.9182  159.7743 C.ar    1  UNL1        0.0063
     14 C         142.8158  139.1382  160.9717 C.ar    1  UNL1        0.0550
     15 C         143.2385  137.7072  160.8182 C.ar    1  UNL1        0.1020
     16 N         143.2053  137.0562  159.4672 N.ar    1  UNL1       -0.2392
     17 N         143.9063  137.2800  156.0111 N.am    1  UNL1       -0.3241
     18 C         142.7160  137.1852  156.9189 C.2     1  UNL1        0.2605
     19 O         141.4924  136.4392  156.4757 O.2     1  UNL1       -0.2687
     20 H         143.8845  136.8527  155.1244 H       1  UNL1        0.1453
     21 H         144.7094  137.7696  156.3020 H       1  UNL1        0.1453
     22 C         142.1442  141.1692  167.5043 C.ar    1  UNL1        0.0001
     23 C         142.6966  140.0386  168.3207 C.ar    1  UNL1        0.0000
     24 C         141.8919  139.4654  169.4494 C.ar    1  UNL1        0.0000
     25 C         140.5349  140.0229  169.7618 C.ar    1  UNL1        0.0000
     26 C         139.9825  141.1536  168.9453 C.ar    1  UNL1        0.0000
     27 C         140.7871  141.7267  167.8166 C.ar    1  UNL1        0.0000
     28 N         141.2731  139.2940  165.9311 N.pl3   1  UNL1       -0.3131
     29 H         141.7028  139.1081  166.7972 H       1  UNL1        0.1485
     30 C         139.8137  139.0042  165.7404 C.3     1  UNL1        0.1348
     31 C         139.0011  139.8371  164.7939 C.ar    1  UNL1        0.0788
     32 C         138.6101  141.2351  165.1713 C.ar    1  UNL1        0.0165
     33 C         137.7975  142.0681  164.2248 C.ar    1  UNL1        0.0029
     34 C         137.3758  141.5029  162.9009 C.ar    1  UNL1        0.0207
     35 C         137.7668  140.1048  162.5234 C.ar    1  UNL1        0.0985
     36 N         138.5794  139.2719  163.4699 N.ar    1  UNL1       -0.2464
@<TRIPOS>BOND
     1    17    18   am
     2    18    19    2
     3    18    11    1
     4    11    12   ar
     5    12    13   ar
     6    13    14   ar
     7    14     1    1
     8     1     2   ar
     9     2     3   ar
    10     3    28    1
    11    28    30    1
    12    30    31    1
    13    31    32   ar
    14    32    33   ar
    15    33    34   ar
    16    34    35   ar
    17    35    36   ar
    18     3     4   ar
    19     4     5   ar
    20     5    22    1
    21    22    23   ar
    22    23    24   ar
    23    24    25   ar
    24    25    26   ar
    25    26    27   ar
    26     5     6   ar
    27     6     7   ar
    28     7     8   ar
    29     8     9   ar
    30     9    10   ar
    31    14    15   ar
    32    15    16   ar
    33    16    11   ar
    34    10     1   ar
    35    36    31   ar
    36     9     4   ar
    37    27    22   ar
    38    17    20    1
    39    17    21    1
    40    28    29    1
@<TRIPOS>MOLECULE
*****
 36 40 0 0 0
SMALL
GASTEIGER

@<TRIPOS>ATOM
      1 C         141.3970  143.4734  160.5244 C.ar    1  UNL1        0.1651
      2 N         141.4106  142.0688  161.0507 N.ar    1  UNL1       -0.2121
      3 C         142.1171  141.7565  162.3365 C.ar    1  UNL1        0.1318
      4 C         142.8101  142.8488  163.0960 C.ar    1  UNL1        0.0491
      5 C         143.5166  142.5366  164.3818 C.ar    1  UNL1        0.0041
      6 C         144.2095  143.6288  165.1413 C.ar    1  UNL1        0.0002
      7 C         144.1960  145.0333  164.6149 C.ar    1  UNL1        0.0015
      8 C         143.4894  145.3456  163.3291 C.ar    1  UNL1        0.0192
      9 C         142.7965  144.2534  162.5696 C.ar    1  UNL1        0.0856
     10 N         142.0900  144.5657  161.2838 N.ar    1  UNL1       -0.2264
     11 C         139.2775  144.4103  156.6669 C.ar    1  UNL1        0.1342
     12 C         139.1408  143.0513  157.2869 C.ar    1  UNL1        0.0239
     13 C         139.8474  142.7390  158.5727 C.ar    1  UNL1        0.0063
     14 C         140.6905  143.7857  159.2386 C.ar    1  UNL1        0.0550
     15 C         140.8272  145.1448  158.6186 C.ar    1  UNL1        0.1020
     16 N         140.1207  145.4571  157.3328 N.ar    1  UNL1       -0.2392
     17 N         139.3579  145.1481  154.1771 N.am    1  UNL1       -0.3241
     18 C         138.5710  144.7226  155.3811 C.2     1  UNL1        0.2605
     19 O         137.0774  144.6094  155.2994 O.2     1  UNL1       -0.2687
     20 H         138.8942  145.3530  153.3332 H       1  UNL1        0.1453
     21 H         140.3381  145.2224  154.2308 H       1  UNL1        0.1453
     22 C         143.5301  141.1319  164.9082 C.ar    1  UNL1        0.0001
     23 C         142.5054  140.6980  165.9139 C.ar    1  UNL1        0.0000
     24 C         142.5190  139.2934  166.4402 C.ar    1  UNL1        0.0000
     25 C         143.5573  138.3228  165.9608 C.ar    1  UNL1        0.0000
     26 C         144.5820  138.7568  164.9550 C.ar    1  UNL1        0.0000
     27 C         144.5685  140.1614  164.4287 C.ar    1  UNL1        0.0000
     28 N         142.1307  140.3520  162.8629 N.pl3   1  UNL1       -0.3131
     29 H         142.9186  140.0158  163.3481 H       1  UNL1        0.1485
     30 C         140.9438  139.4597  162.6500 C.3     1  UNL1        0.1348
     31 C         139.9975  139.1877  163.7815 C.ar    1  UNL1        0.0788
     32 C         139.7925  137.7832  164.2666 C.ar    1  UNL1        0.0165
     33 C         138.8461  137.5111  165.3982 C.ar    1  UNL1        0.0029
     34 C         138.1047  138.6436  166.0446 C.ar    1  UNL1        0.0207
     35 C         138.3097  140.0481  165.5594 C.ar    1  UNL1        0.0985
     36 N         139.2561  140.3202  164.4279 N.ar    1  UNL1       -0.2464
@<TRIPOS>BOND
     1    17    18   am
     2    18    19    2
     3    18    11    1
     4    11    12   ar
     5    12    13   ar
     6    13    14   ar
     7    14     1    1
     8     1     2   ar
     9     2     3   ar
    10     3    28    1
    11    28    30    1
    12    30    31    1
    13    31    32   ar
    14    32    33   ar
    15    33    34   ar
    16    34    35   ar
    17    35    36   ar
    18     3     4   ar
    19     4     5   ar
    20     5    22    1
    21    22    23   ar
    22    23    24   ar
    23    24    25   ar
    24    25    26   ar
    25    26    27   ar
    26     5     6   ar
    27     6     7   ar
    28     7     8   ar
    29     8     9   ar
    30     9    10   ar
    31    14    15   ar
    32    15    16   ar
    33    16    11   ar
    34    10     1   ar
    35    36    31   ar
    36     9     4   ar
    37    27    22   ar
    38    17    20    1
    39    17    21    1
    40    28    29    1
@<TRIPOS>MOLECULE
*****
 36 40 0 0 0
SMALL
GASTEIGER

@<TRIPOS>ATOM
      1 C         141.5782  142.6806  165.2270 C.ar    1  UNL1        0.1651
      2 N         142.2468  141.7438  164.2649 N.ar    1  UNL1       -0.2121
      3 C         142.2434  142.0489  162.7962 C.ar    1  UNL1        0.1318
      4 C         141.5714  143.2907  162.2897 C.ar    1  UNL1        0.0491
      5 C         141.5680  143.5958  160.8211 C.ar    1  UNL1        0.0041
      6 C         140.8960  144.8375  160.3146 C.ar    1  UNL1        0.0002
      7 C         140.2275  145.7741  161.2767 C.ar    1  UNL1        0.0015
      8 C         140.2310  145.4691  162.7454 C.ar    1  UNL1        0.0192
      9 C         140.9029  144.2274  163.2519 C.ar    1  UNL1        0.0856
     10 N         140.9063  143.9223  164.7205 N.ar    1  UNL1       -0.2264
     11 C         141.5885  141.7654  169.6330 C.ar    1  UNL1        0.1342
     12 C         140.4600  142.5501  169.0326 C.ar    1  UNL1        0.0239
     13 C         140.4566  142.8552  167.5640 C.ar    1  UNL1        0.0063
     14 C         141.5817  142.3755  166.6957 C.ar    1  UNL1        0.0550
     15 C         142.7103  141.5907  167.2960 C.ar    1  UNL1        0.1020
     16 N         142.7137  141.2856  168.7647 N.ar    1  UNL1       -0.2392
     17 N         142.5759  140.4759  171.6609 N.am    1  UNL1       -0.3241
     18 C         141.5920  141.4603  171.1016 C.2     1  UNL1        0.2605
     19 O         140.6114  142.1397  172.0111 O.2     1  UNL1       -0.2687
     20 H         142.5781  140.2757  172.6248 H       1  UNL1        0.1453
     21 H         143.2195  140.0300  171.0640 H       1  UNL1        0.1453
     22 C         142.2365  142.6591  159.8590 C.ar    1  UNL1        0.0001
     23 C         143.6929  142.8245  159.5406 C.ar    1  UNL1        0.0000
     24 C         144.3615  141.8878  158.5784 C.ar    1  UNL1        0.0000
     25 C         143.5735  140.7856  157.9347 C.ar    1  UNL1        0.0000
     26 C         142.1170  140.6202  158.2531 C.ar    1  UNL1        0.0000
     27 C         141.4485  141.5569  159.2152 C.ar    1  UNL1        0.0000
     28 N         142.9119  141.1123  161.8341 N.pl3   1  UNL1       -0.3131
     29 H         143.3654  141.4677  161.0358 H       1  UNL1        0.1485
     30 C         142.8893  139.6341  162.0882 C.3     1  UNL1        0.1348
     31 C         141.5957  138.9489  162.4149 C.ar    1  UNL1        0.0788
     32 C         141.3970  138.3261  163.7650 C.ar    1  UNL1        0.0165
     33 C         140.1032  137.6408  164.0918 C.ar    1  UNL1        0.0029
     34 C         139.0082  137.5784  163.0685 C.ar    1  UNL1        0.0207
     35 C         139.2070  138.2012  161.7184 C.ar    1  UNL1        0.0985
     36 N         140.5007  138.8864  161.3917 N.ar    1  UNL1       -0.2464
@<TRIPOS>BOND
     1    17    18   am
     2    18    19    2
     3    18    11    1
     4    11    12   ar
     5    12    13   ar
     6    13    14   ar
     7    14     1    1
     8     1     2   ar
     9     2     3   ar
    10     3    28    1
    11    28    30    1
    12    30    31    1
    13    31    32   ar
    14    32    33   ar
    15    33    34   ar
    16    34    35   ar
    17    35    36   ar
    18     3     4   ar
    19     4     5   ar
    20     5    22    1
    21    22    23   ar
    22    23    24   ar
    23    24    25   ar
    24    25    26   ar
    25    26    27   ar
    26     5     6   ar
    27     6     7   ar
    28     7     8   ar
    29     8     9   ar
    30     9    10   ar
    31    14    15   ar
    32    15    16   ar
    33    16    11   ar
    34    10     1   ar
    35    36    31   ar
    36     9     4   ar
    37    27    22   ar
    38    17    20    1
    39    17    21    1
    40    28    29    1
@<TRIPOS>MOLECULE
*****
 36 40 0 0 0
SMALL
GASTEIGER

@<TRIPOS>ATOM
      1 C         139.7938  141.9740  163.0747 C.ar    1  UNL1        0.1651
      2 N         140.7692  142.6238  164.0108 N.ar    1  UNL1       -0.2121
      3 C         140.8279  142.1970  165.4477 C.ar    1  UNL1        0.1318
      4 C         139.9112  141.1204  165.9483 C.ar    1  UNL1        0.0491
      5 C         139.9699  140.6937  167.3851 C.ar    1  UNL1        0.0041
      6 C         139.0532  139.6172  167.8858 C.ar    1  UNL1        0.0002
      7 C         138.0778  138.9674  166.9497 C.ar    1  UNL1        0.0015
      8 C         138.0191  139.3941  165.5129 C.ar    1  UNL1        0.0192
      9 C         138.9358  140.4707  165.0122 C.ar    1  UNL1        0.0856
     10 N         138.8771  140.8974  163.5754 N.ar    1  UNL1       -0.2264
     11 C         139.6177  143.2542  158.7643 C.ar    1  UNL1        0.1342
     12 C         140.9406  143.1580  159.4646 C.ar    1  UNL1        0.0239
     13 C         140.9993  142.7312  160.9014 C.ar    1  UNL1        0.0063
     14 C         139.7351  142.4007  161.6379 C.ar    1  UNL1        0.0550
     15 C         138.4120  142.4970  160.9375 C.ar    1  UNL1        0.1020
     16 N         138.3533  142.9237  159.5007 N.ar    1  UNL1       -0.2392
     17 N         138.4200  143.2358  156.4588 N.am    1  UNL1       -0.3241
     18 C         139.5590  143.6810  157.3274 C.2     1  UNL1        0.2605
     19 O         140.6393  144.5529  156.7593 O.2     1  UNL1       -0.2687
     20 H         138.3815  143.5159  155.5157 H       1  UNL1        0.1453
     21 H         137.7110  142.6636  156.8317 H       1  UNL1        0.1453
     22 C         140.9453  141.3435  168.3213 C.ar    1  UNL1        0.0001
     23 C         142.2721  140.6972  168.5892 C.ar    1  UNL1        0.0000
     24 C         143.2475  141.3470  169.5254 C.ar    1  UNL1        0.0000
     25 C         142.8961  142.6432  170.1935 C.ar    1  UNL1        0.0000
     26 C         141.5692  143.2896  169.9255 C.ar    1  UNL1        0.0000
     27 C         140.5939  142.6397  168.9894 C.ar    1  UNL1        0.0000
     28 N         141.8033  142.8468  166.3838 N.pl3   1  UNL1       -0.3131
     29 H         141.4825  143.2711  167.2122 H       1  UNL1        0.1485
     30 C         143.2675  142.8502  166.0577 C.3     1  UNL1        0.1348
     31 C         143.7815  142.0362  164.9075 C.ar    1  UNL1        0.0788
     32 C         143.8538  140.5421  165.0191 C.ar    1  UNL1        0.0165
     33 C         144.3679  139.7280  163.8688 C.ar    1  UNL1        0.0029
     34 C         144.8097  140.4081  162.6070 C.ar    1  UNL1        0.0207
     35 C         144.7374  141.9022  162.4953 C.ar    1  UNL1        0.0985
     36 N         144.2233  142.7162  163.6456 N.ar    1  UNL1       -0.2464
@<TRIPOS>BOND
     1    17    18   am
     2    18    19    2
     3    18    11    1
     4    11    12   ar
     5    12    13   ar
     6    13    14   ar
     7    14     1    1
     8     1     2   ar
     9     2     3   ar
    10     3    28    1
    11    28    30    1
    12    30    31    1
    13    31    32   ar
    14    32    33   ar
    15    33    34   ar
    16    34    35   ar
    17    35    36   ar
    18     3     4   ar
    19     4     5   ar
    20     5    22    1
    21    22    23   ar
    22    23    24   ar
    23    24    25   ar
    24    25    26   ar
    25    26    27   ar
    26     5     6   ar
    27     6     7   ar
    28     7     8   ar
    29     8     9   ar
    30     9    10   ar
    31    14    15   ar
    32    15    16   ar
    33    16    11   ar
    34    10     1   ar
    35    36    31   ar
    36     9     4   ar
    37    27    22   ar
    38    17    20    1
    39    17    21    1
    40    28    29    1
@<TRIPOS>MOLECULE
*****
 36 40 0 0 0
SMALL
GASTEIGER

@<TRIPOS>ATOM
      1 C         140.3080  142.2513  165.0388 C.ar    1  UNL1        0.1651
      2 N         140.5875  141.1939  164.0121 N.ar    1  UNL1       -0.2121
      3 C         140.6161  141.5516  162.5557 C.ar    1  UNL1        0.1318
      4 C         140.3651  142.9667  162.1258 C.ar    1  UNL1        0.0491
      5 C         140.3937  143.3243  160.6694 C.ar    1  UNL1        0.0041
      6 C         140.1427  144.7393  160.2395 C.ar    1  UNL1        0.0002
      7 C         139.8632  145.7966  161.2661 C.ar    1  UNL1        0.0015
      8 C         139.8346  145.4389  162.7226 C.ar    1  UNL1        0.0192
      9 C         140.0856  144.0240  163.1524 C.ar    1  UNL1        0.0856
     10 N         140.0570  143.6663  164.6089 N.ar    1  UNL1       -0.2264
     11 C         140.2223  141.1783  169.4081 C.ar    1  UNL1        0.1342
     12 C         139.9584  140.1262  168.3721 C.ar    1  UNL1        0.0239
     13 C         139.9870  140.4839  166.9157 C.ar    1  UNL1        0.0063
     14 C         140.2794  141.8937  166.4952 C.ar    1  UNL1        0.0550
     15 C         140.5434  142.9459  167.5312 C.ar    1  UNL1        0.1020
     16 N         140.5148  142.5882  168.9877 N.ar    1  UNL1       -0.2392
     17 N         139.8291  139.4287  171.2880 N.am    1  UNL1       -0.3241
     18 C         140.1938  140.8207  170.8646 C.2     1  UNL1        0.2605
     19 O         140.5300  141.8550  171.8976 O.2     1  UNL1       -0.2687
     20 H         139.8103  139.1939  172.2439 H       1  UNL1        0.1453
     21 H         139.6084  138.7498  170.6100 H       1  UNL1        0.1453
     22 C         140.6732  142.2670  159.6428 C.ar    1  UNL1        0.0001
     23 C         142.0696  142.0675  159.1326 C.ar    1  UNL1        0.0000
     24 C         142.3491  141.0101  158.1059 C.ar    1  UNL1        0.0000
     25 C         141.2322  140.1522  157.5896 C.ar    1  UNL1        0.0000
     26 C         139.8358  140.3517  158.0999 C.ar    1  UNL1        0.0000
     27 C         139.5563  141.4090  159.1264 C.ar    1  UNL1        0.0000
     28 N         140.8956  140.4943  161.5291 N.pl3   1  UNL1       -0.3131
     29 H         140.2733  140.3607  160.7780 H       1  UNL1        0.1485
     30 C         142.1233  139.6405  161.6469 C.3     1  UNL1        0.1348
     31 C         143.3316  140.1597  162.3683 C.ar    1  UNL1        0.0788
     32 C         143.8248  139.4640  163.6022 C.ar    1  UNL1        0.0165
     33 C         145.0331  139.9832  164.3237 C.ar    1  UNL1        0.0029
     34 C         145.7482  141.1981  163.8112 C.ar    1  UNL1        0.0207
     35 C         145.2549  141.8938  162.5772 C.ar    1  UNL1        0.0985
     36 N         144.0466  141.3746  161.8557 N.ar    1  UNL1       -0.2464
@<TRIPOS>BOND
     1    17    18   am
     2    18    19    2
     3    18    11    1
     4    11    12   ar
     5    12    13   ar
     6    13    14   ar
     7    14     1    1
     8     1     2   ar
     9     2     3   ar
    10     3    28    1
    11    28    30    1
    12    30    31    1
    13    31    32   ar
    14    32    33   ar
    15    33    34   ar
    16    34    35   ar
    17    35    36   ar
    18     3     4   ar
    19     4     5   ar
    20     5    22    1
    21    22    23   ar
    22    23    24   ar
    23    24    25   ar
    24    25    26   ar
    25    26    27   ar
    26     5     6   ar
    27     6     7   ar
    28     7     8   ar
    29     8     9   ar
    30     9    10   ar
    31    14    15   ar
    32    15    16   ar
    33    16    11   ar
    34    10     1   ar
    35    36    31   ar
    36     9     4   ar
    37    27    22   ar
    38    17    20    1
    39    17    21    1
    40    28    29    1
@<TRIPOS>MOLECULE
*****
 36 40 0 0 0
SMALL
GASTEIGER

@<TRIPOS>ATOM
      1 C         140.1376  142.1127  161.9602 C.ar    1  UNL1        0.1651
      2 N         140.6199  142.4882  163.3301 N.ar    1  UNL1       -0.2121
      3 C         140.5318  141.4984  164.4537 C.ar    1  UNL1        0.1318
      4 C         139.9613  140.1331  164.2074 C.ar    1  UNL1        0.0491
      5 C         139.8732  139.1433  165.3310 C.ar    1  UNL1        0.0041
      6 C         139.3028  137.7780  165.0848 C.ar    1  UNL1        0.0002
      7 C         138.8205  137.4026  163.7150 C.ar    1  UNL1        0.0015
      8 C         138.9086  138.3924  162.5914 C.ar    1  UNL1        0.0192
      9 C         139.4790  139.7577  162.8376 C.ar    1  UNL1        0.0856
     10 N         139.5671  140.7475  161.7140 N.ar    1  UNL1       -0.2264
     11 C         140.4019  145.0822  158.5894 C.ar    1  UNL1        0.1342
     12 C         141.3788  145.1485  159.7257 C.ar    1  UNL1        0.0239
     13 C         141.2907  144.1587  160.8493 C.ar    1  UNL1        0.0063
     14 C         140.2257  143.1025  160.8366 C.ar    1  UNL1        0.0550
     15 C         139.2487  143.0362  159.7003 C.ar    1  UNL1        0.1020
     16 N         139.3368  144.0260  158.5767 N.ar    1  UNL1       -0.2392
     17 N         141.8242  146.4183  156.8742 N.am    1  UNL1       -0.3241
     18 C         140.4900  146.0720  157.4658 C.2     1  UNL1        0.2605
     19 O         139.2439  146.7155  156.9337 O.2     1  UNL1       -0.2687
     20 H         141.8820  147.0680  156.1368 H       1  UNL1        0.1453
     21 H         142.6421  145.9960  157.2234 H       1  UNL1        0.1453
     22 C         140.3556  139.5187  166.7009 C.ar    1  UNL1        0.0001
     23 C         139.4045  140.1216  167.6918 C.ar    1  UNL1        0.0000
     24 C         139.8869  140.4971  169.0616 C.ar    1  UNL1        0.0000
     25 C         141.3203  140.2697  169.4405 C.ar    1  UNL1        0.0000
     26 C         142.2714  139.6668  168.4495 C.ar    1  UNL1        0.0000
     27 C         141.7890  139.2913  167.0797 C.ar    1  UNL1        0.0000
     28 N         141.0141  141.8738  165.8234 N.pl3   1  UNL1       -0.3131
     29 H         140.4453  141.7050  166.6090 H       1  UNL1        0.1485
     30 C         142.3632  142.5065  165.9963 C.3     1  UNL1        0.1348
     31 C         143.4425  142.2599  164.9843 C.ar    1  UNL1        0.0788
     32 C         143.8173  143.3371  164.0100 C.ar    1  UNL1        0.0165
     33 C         144.8966  143.0906  162.9979 C.ar    1  UNL1        0.0029
     34 C         145.6011  141.7668  162.9601 C.ar    1  UNL1        0.0207
     35 C         145.2262  140.6896  163.9344 C.ar    1  UNL1        0.0985
     36 N         144.1469  140.9362  164.9465 N.ar    1  UNL1       -0.2464
@<TRIPOS>BOND
     1    17    18   am
     2    18    19    2
     3    18    11    1
     4    11    12   ar
     5    12    13   ar
     6    13    14   ar
     7    14     1    1
     8     1     2   ar
     9     2     3   ar
    10     3    28    1
    11    28    30    1
    12    30    31    1
    13    31    32   ar
    14    32    33   ar
    15    33    34   ar
    16    34    35   ar
    17    35    36   ar
    18     3     4   ar
    19     4     5   ar
    20     5    22    1
    21    22    23   ar
    22    23    24   ar
    23    24    25   ar
    24    25    26   ar
    25    26    27   ar
    26     5     6   ar
    27     6     7   ar
    28     7     8   ar
    29     8     9   ar
    30     9    10   ar
    31    14    15   ar
    32    15    16   ar
    33    16    11   ar
    34    10     1   ar
    35    36    31   ar
    36     9     4   ar
    37    27    22   ar
    38    17    20    1
    39    17    21    1
    40    28    29    1
