@<TRIPOS>MOLECULE
*****
 37 40 0 0 0
SMALL
GASTEIGER

@<TRIPOS>ATOM
      1 C         141.2304  139.9418  164.4630 C.2     1  UNL1        0.1397
      2 C         141.3079  140.0592  162.9696 C.2     1  UNL1        0.1355
      3 N         141.0137  141.3709  162.3041 N.pl3   1  UNL1       -0.1998
      4 C         140.6420  142.5652  163.1320 C.2     1  UNL1        0.3442
      5 N         140.5646  142.4478  164.6254 N.2     1  UNL1       -0.0580
      6 C         140.8588  141.1361  165.2908 C.3     1  UNL1        0.2692
      7 H         141.0645  141.4479  161.3240 H       1  UNL1        0.2983
      8 C         140.7813  141.0188  166.7843 C.ar    1  UNL1        0.0371
      9 C         139.5639  140.4238  167.4277 C.ar    1  UNL1        0.0030
     10 C         139.4864  140.3064  168.9210 C.ar    1  UNL1        0.0295
     11 C         140.6263  140.7841  169.7711 C.ar    1  UNL1        0.1406
     12 F         140.5488  140.6668  171.2645 F       1  UNL1       -0.2042
     13 C         141.8437  141.3792  169.1277 C.ar    1  UNL1        0.0362
     14 C         141.9212  141.4965  167.6343 C.ar    1  UNL1        0.0372
     15 BR        143.1385  142.0915  166.9909 Br      1  UNL1       -0.0491
     16 C         140.3479  143.8769  162.4665 C.ar    1  UNL1        0.1931
     17 N         139.5976  145.0251  163.0738 N.ar    1  UNL1       -0.2297
     18 C         139.5383  146.1285  162.0595 C.ar    1  UNL1        0.1067
     19 C         140.2520  145.6624  160.8253 C.ar    1  UNL1        0.0577
     20 S         140.7523  144.2709  161.0768 S.2     1  UNL1       -0.0586
     21 C         141.5246  138.6301  165.1285 C.2     1  UNL1        0.3447
     22 O         142.8175  138.4353  165.8635 O.2     1  UNL1       -0.2450
     23 O         140.5258  137.5132  165.0589 O.3     1  UNL1       -0.4455
     24 C         138.1197  137.4179  166.0346 C.3     1  UNL1        0.0513
     25 C         139.0627  137.8217  164.9400 C.3     1  UNL1        0.2089
     26 C         141.6795  138.8648  162.1417 C.3     1  UNL1        0.1404
     27 N         141.3759  138.8466  160.6728 N.3     1  UNL1       -0.2628
     28 C         142.4408  139.2135  159.6822 C.3     1  UNL1        0.1049
     29 C         142.1372  139.1953  158.2134 C.3     1  UNL1        0.1595
     30 O         140.7686  138.8102  157.7352 O.3     1  UNL1       -0.3509
     31 C         139.7037  138.4432  158.7258 C.3     1  UNL1        0.1580
     32 C         140.0073  138.4614  160.1946 C.3     1  UNL1        0.0880
     33 C         138.9424  138.0945  161.1852 C.3     1  UNL1        0.0244
     34 C         137.7282  138.9621  161.3369 C.3     1  UNL1        0.0432
     35 C         137.8717  140.3754  161.8184 C.2     1  UNL1        0.0504
     36 O         137.7569  140.6846  163.2817 O.co2   1  UNL1       -0.5492
     37 O         138.1301  141.4796  160.8366 O.co2   1  UNL1       -0.5492
@<TRIPOS>UNITY_ATOM_ATTR
36 1
charge -1
@<TRIPOS>BOND
     1    24    25    1
     2    25    23    1
     3    23    21    1
     4    21    22    2
     5    21     1    1
     6     1     2    2
     7     2    26    1
     8    26    27    1
     9    27    28    1
    10    28    29    1
    11    29    30    1
    12    30    31    1
    13    31    32    1
    14    32    33    1
    15    33    34    1
    16    34    35    1
    17    35    36   ar
    18    35    37   ar
    19     2     3    1
    20     3     4    1
    21     4    16    1
    22    16    17   ar
    23    17    18   ar
    24    18    19   ar
    25    19    20   ar
    26     4     5    2
    27     5     6    1
    28     6     8    1
    29     8     9   ar
    30     9    10   ar
    31    10    11   ar
    32    11    12    1
    33    11    13   ar
    34    13    14   ar
    35    14    15    1
    36     6     1    1
    37    14     8   ar
    38    32    27    1
    39    20    16   ar
    40     3     7    1
@<TRIPOS>MOLECULE
*****
 37 40 0 0 0
SMALL
GASTEIGER

@<TRIPOS>ATOM
      1 C         141.3240  139.7524  164.0399 C.2     1  UNL1        0.1397
      2 C         141.5179  139.9860  162.5709 C.2     1  UNL1        0.1355
      3 N         141.2191  141.3318  161.9796 N.pl3   1  UNL1       -0.1998
      4 C         140.7263  142.4439  162.8572 C.2     1  UNL1        0.3442
      5 N         140.5324  142.2103  164.3261 N.2     1  UNL1       -0.0580
      6 C         140.8313  140.8646  164.9175 C.3     1  UNL1        0.2692
      7 H         141.3463  141.4850  161.0155 H       1  UNL1        0.2983
      8 C         140.6373  140.6311  166.3865 C.ar    1  UNL1        0.0371
      9 C         141.7273  140.9886  167.3530 C.ar    1  UNL1        0.0030
     10 C         141.5334  140.7551  168.8220 C.ar    1  UNL1        0.0295
     11 C         140.2496  140.1640  169.3245 C.ar    1  UNL1        0.1406
     12 F         140.0557  139.9305  170.7934 F       1  UNL1       -0.2042
     13 C         139.1596  139.8065  168.3579 C.ar    1  UNL1        0.0362
     14 C         139.3535  140.0400  166.8889 C.ar    1  UNL1        0.0372
     15 BR        138.2636  139.6825  165.9224 Br      1  UNL1       -0.0491
     16 C         140.4274  143.7896  162.2659 C.ar    1  UNL1        0.1931
     17 N         139.7513  144.9303  162.9671 N.ar    1  UNL1       -0.2297
     18 C         139.6581  146.0767  162.0041 C.ar    1  UNL1        0.1067
     19 C         140.2767  145.6444  160.7077 C.ar    1  UNL1        0.0577
     20 S         140.7521  144.2310  160.8696 S.2     1  UNL1       -0.0586
     21 C         141.6229  138.4067  164.6312 C.2     1  UNL1        0.3447
     22 O         140.5863  137.3233  164.5920 O.2     1  UNL1       -0.2450
     23 O         142.9584  138.1444  165.2617 O.3     1  UNL1       -0.4455
     24 C         144.9239  139.3840  164.0996 C.3     1  UNL1        0.0513
     25 C         144.0058  139.2181  165.2743 C.3     1  UNL1        0.2089
     26 C         142.0107  138.8738  161.6933 C.3     1  UNL1        0.1404
     27 N         141.5842  138.8069  160.2568 N.3     1  UNL1       -0.2628
     28 C         142.5782  139.0748  159.1659 C.3     1  UNL1        0.1049
     29 C         142.1516  139.0078  157.7294 C.3     1  UNL1        0.1595
     30 O         140.7309  138.6729  157.3838 O.3     1  UNL1       -0.3509
     31 C         139.7368  138.4050  158.4747 C.3     1  UNL1        0.1580
     32 C         140.1634  138.4720  159.9111 C.3     1  UNL1        0.0880
     33 C         139.1693  138.2041  161.0020 C.3     1  UNL1        0.0244
     34 C         137.8898  138.9847  161.0590 C.3     1  UNL1        0.0432
     35 C         137.9197  140.4524  161.3673 C.2     1  UNL1        0.0504
     36 O         138.4558  141.4207  160.3549 O.co2   1  UNL1       -0.5492
     37 O         137.4136  140.9518  162.6880 O.co2   1  UNL1       -0.5492
@<TRIPOS>UNITY_ATOM_ATTR
36 1
charge -1
@<TRIPOS>BOND
     1    24    25    1
     2    25    23    1
     3    23    21    1
     4    21    22    2
     5    21     1    1
     6     1     2    2
     7     2    26    1
     8    26    27    1
     9    27    28    1
    10    28    29    1
    11    29    30    1
    12    30    31    1
    13    31    32    1
    14    32    33    1
    15    33    34    1
    16    34    35    1
    17    35    36   ar
    18    35    37   ar
    19     2     3    1
    20     3     4    1
    21     4    16    1
    22    16    17   ar
    23    17    18   ar
    24    18    19   ar
    25    19    20   ar
    26     4     5    2
    27     5     6    1
    28     6     8    1
    29     8     9   ar
    30     9    10   ar
    31    10    11   ar
    32    11    12    1
    33    11    13   ar
    34    13    14   ar
    35    14    15    1
    36     6     1    1
    37    14     8   ar
    38    32    27    1
    39    20    16   ar
    40     3     7    1
@<TRIPOS>MOLECULE
*****
 37 40 0 0 0
SMALL
GASTEIGER

@<TRIPOS>ATOM
      1 C         140.2740  139.7132  164.2757 C.2     1  UNL1        0.1397
      2 C         140.0667  139.8033  162.7929 C.2     1  UNL1        0.1355
      3 N         140.0169  141.1442  162.1226 N.pl3   1  UNL1       -0.1998
      4 C         140.1745  142.3952  162.9351 C.2     1  UNL1        0.3442
      5 N         140.3818  142.3051  164.4180 N.2     1  UNL1       -0.0580
      6 C         140.4316  140.9641  165.0882 C.3     1  UNL1        0.2692
      7 H         139.8809  141.2033  161.1493 H       1  UNL1        0.2983
      8 C         140.6389  140.8741  166.5712 C.ar    1  UNL1        0.0371
      9 C         139.5464  140.3415  167.4502 C.ar    1  UNL1        0.0030
     10 C         139.7537  140.2515  168.9331 C.ar    1  UNL1        0.0295
     11 C         141.0535  140.6941  169.5369 C.ar    1  UNL1        0.1406
     12 F         141.2608  140.6041  171.0198 F       1  UNL1       -0.2042
     13 C         142.1460  141.2267  168.6579 C.ar    1  UNL1        0.0362
     14 C         141.9387  141.3167  167.1750 C.ar    1  UNL1        0.0372
     15 BR        143.0312  141.8494  166.2959 Br      1  UNL1       -0.0491
     16 C         140.1248  143.7362  162.2648 C.ar    1  UNL1        0.1931
     17 N         140.6701  144.0636  160.9064 N.ar    1  UNL1       -0.2297
     18 C         140.4033  145.5150  160.6373 C.ar    1  UNL1        0.1067
     19 C         139.6931  146.0845  161.8294 C.ar    1  UNL1        0.0577
     20 S         139.5210  144.9852  162.8353 S.2     1  UNL1       -0.0586
     21 C         140.3238  138.3722  164.9460 C.2     1  UNL1        0.3447
     22 O         139.0794  137.7862  165.5443 O.2     1  UNL1       -0.2450
     23 O         141.6179  137.6173  165.0180 O.3     1  UNL1       -0.4455
     24 C         143.7314  138.1131  166.4454 C.3     1  UNL1        0.0513
     25 C         142.9077  138.3571  165.2157 C.3     1  UNL1        0.2089
     26 C         139.9091  138.5523  161.9802 C.3     1  UNL1        0.1404
     27 N         140.4536  138.4914  160.5839 N.3     1  UNL1       -0.2628
     28 C         139.5449  138.7258  159.4137 C.3     1  UNL1        0.1049
     29 C         140.0894  138.6650  158.0173 C.3     1  UNL1        0.1595
     30 O         141.5425  138.3698  157.7911 O.3     1  UNL1       -0.3509
     31 C         142.4512  138.1354  158.9613 C.3     1  UNL1        0.1580
     32 C         141.9068  138.1962  160.3577 C.3     1  UNL1        0.0880
     33 C         142.8154  137.9618  161.5279 C.3     1  UNL1        0.0244
     34 C         144.1058  138.7185  161.6388 C.3     1  UNL1        0.0432
     35 C         144.1069  140.1282  162.1516 C.2     1  UNL1        0.0504
     36 O         143.1121  141.1190  161.6239 O.co2   1  UNL1       -0.5492
     37 O         145.1027  140.5469  163.1922 O.co2   1  UNL1       -0.5492
@<TRIPOS>UNITY_ATOM_ATTR
36 1
charge -1
@<TRIPOS>BOND
     1    24    25    1
     2    25    23    1
     3    23    21    1
     4    21    22    2
     5    21     1    1
     6     1     2    2
     7     2    26    1
     8    26    27    1
     9    27    28    1
    10    28    29    1
    11    29    30    1
    12    30    31    1
    13    31    32    1
    14    32    33    1
    15    33    34    1
    16    34    35    1
    17    35    36   ar
    18    35    37   ar
    19     2     3    1
    20     3     4    1
    21     4    16    1
    22    16    17   ar
    23    17    18   ar
    24    18    19   ar
    25    19    20   ar
    26     4     5    2
    27     5     6    1
    28     6     8    1
    29     8     9   ar
    30     9    10   ar
    31    10    11   ar
    32    11    12    1
    33    11    13   ar
    34    13    14   ar
    35    14    15    1
    36     6     1    1
    37    14     8   ar
    38    32    27    1
    39    20    16   ar
    40     3     7    1
@<TRIPOS>MOLECULE
*****
 37 40 0 0 0
SMALL
GASTEIGER

@<TRIPOS>ATOM
      1 C         142.2880  142.4670  163.9313 C.2     1  UNL1        0.1397
      2 C         142.0973  142.4822  162.4436 C.2     1  UNL1        0.1355
      3 N         140.9962  141.6766  161.8204 N.pl3   1  UNL1       -0.1998
      4 C         140.0858  140.8558  162.6848 C.2     1  UNL1        0.3442
      5 N         140.2765  140.8406  164.1725 N.2     1  UNL1       -0.0580
      6 C         141.3776  141.6462  164.7958 C.3     1  UNL1        0.2692
      7 H         140.8711  141.6866  160.8439 H       1  UNL1        0.2983
      8 C         141.5683  141.6310  166.2836 C.ar    1  UNL1        0.0371
      9 C         140.9491  142.7035  167.1300 C.ar    1  UNL1        0.0030
     10 C         141.1398  142.6883  168.6178 C.ar    1  UNL1        0.0295
     11 C         141.9495  141.6006  169.2591 C.ar    1  UNL1        0.1406
     12 F         142.1402  141.5855  170.7469 F       1  UNL1       -0.2042
     13 C         142.5687  140.5281  168.4127 C.ar    1  UNL1        0.0362
     14 C         142.3780  140.5434  166.9249 C.ar    1  UNL1        0.0372
     15 BR        142.9971  139.4709  166.0784 Br      1  UNL1       -0.0491
     16 C         138.9846  140.0501  162.0615 C.ar    1  UNL1        0.1931
     17 N         138.0356  140.5256  161.0017 N.ar    1  UNL1       -0.2297
     18 C         137.1036  139.3969  160.6738 C.ar    1  UNL1        0.1067
     19 C         137.4767  138.2238  161.5310 C.ar    1  UNL1        0.0577
     20 S         138.6392  138.6276  162.3887 S.2     1  UNL1       -0.0586
     21 C         143.3892  143.2727  164.5546 C.2     1  UNL1        0.3447
     22 O         143.2246  144.7523  164.7379 O.2     1  UNL1       -0.2450
     23 O         144.6549  142.5987  164.9946 O.3     1  UNL1       -0.4455
     24 C         145.3008  140.5451  163.5401 C.3     1  UNL1        0.0513
     25 C         145.5543  141.9565  163.9804 C.3     1  UNL1        0.2089
     26 C         143.0078  143.3031  161.5791 C.3     1  UNL1        0.1404
     27 N         142.5008  143.8782  160.2899 N.3     1  UNL1       -0.2628
     28 C         143.0891  143.4287  158.9853 C.3     1  UNL1        0.1049
     29 C         142.5820  144.0039  157.6961 C.3     1  UNL1        0.1595
     30 O         141.4867  145.0285  157.7114 O.3     1  UNL1       -0.3509
     31 C         140.8984  145.4780  159.0160 C.3     1  UNL1        0.1580
     32 C         141.4054  144.9029  160.3052 C.3     1  UNL1        0.0880
     33 C         140.8171  145.3524  161.6097 C.3     1  UNL1        0.0244
     34 C         139.3901  145.0291  161.9400 C.3     1  UNL1        0.0432
     35 C         139.0377  144.4876  163.2937 C.2     1  UNL1        0.0504
     36 O         137.8798  143.5466  163.4469 O.co2   1  UNL1       -0.5492
     37 O         139.8432  144.8872  164.4943 O.co2   1  UNL1       -0.5492
@<TRIPOS>UNITY_ATOM_ATTR
36 1
charge -1
@<TRIPOS>BOND
     1    24    25    1
     2    25    23    1
     3    23    21    1
     4    21    22    2
     5    21     1    1
     6     1     2    2
     7     2    26    1
     8    26    27    1
     9    27    28    1
    10    28    29    1
    11    29    30    1
    12    30    31    1
    13    31    32    1
    14    32    33    1
    15    33    34    1
    16    34    35    1
    17    35    36   ar
    18    35    37   ar
    19     2     3    1
    20     3     4    1
    21     4    16    1
    22    16    17   ar
    23    17    18   ar
    24    18    19   ar
    25    19    20   ar
    26     4     5    2
    27     5     6    1
    28     6     8    1
    29     8     9   ar
    30     9    10   ar
    31    10    11   ar
    32    11    12    1
    33    11    13   ar
    34    13    14   ar
    35    14    15    1
    36     6     1    1
    37    14     8   ar
    38    32    27    1
    39    20    16   ar
    40     3     7    1
@<TRIPOS>MOLECULE
*****
 37 40 0 0 0
SMALL
GASTEIGER

@<TRIPOS>ATOM
      1 C         140.7193  140.8367  161.6146 C.2     1  UNL1        0.1397
      2 C         140.0609  141.2115  160.3200 C.2     1  UNL1        0.1355
      3 N         140.2095  140.3253  159.1189 N.pl3   1  UNL1       -0.1998
      4 C         141.0164  139.0644  159.2124 C.2     1  UNL1        0.3442
      5 N         141.6748  138.6896  160.5070 N.2     1  UNL1       -0.0580
      6 C         141.5262  139.5758  161.7081 C.3     1  UNL1        0.2692
      7 H         139.7774  140.5713  158.2692 H       1  UNL1        0.2983
      8 C         142.1846  139.2009  163.0028 C.ar    1  UNL1        0.0371
      9 C         141.4164  138.4393  164.0419 C.ar    1  UNL1        0.0030
     10 C         142.0747  138.0644  165.3365 C.ar    1  UNL1        0.0295
     11 C         143.5014  138.4512  165.5920 C.ar    1  UNL1        0.1406
     12 F         144.1597  138.0764  166.8866 F       1  UNL1       -0.2042
     13 C         144.2696  139.2129  164.5529 C.ar    1  UNL1        0.0362
     14 C         143.6112  139.5877  163.2583 C.ar    1  UNL1        0.0372
     15 BR        144.3794  140.3493  162.2192 Br      1  UNL1       -0.0491
     16 C         141.1650  138.1782  158.0114 C.ar    1  UNL1        0.1931
     17 N         140.0507  137.6832  157.1376 N.ar    1  UNL1       -0.2297
     18 C         140.6509  136.8305  156.0594 C.ar    1  UNL1        0.1067
     19 C         142.1362  136.7984  156.2667 C.ar    1  UNL1        0.0577
     20 S         142.4539  137.6314  157.4731 S.2     1  UNL1       -0.0586
     21 C         140.5707  141.7229  162.8157 C.2     1  UNL1        0.3447
     22 O         139.2938  141.7118  163.6026 O.2     1  UNL1       -0.2450
     23 O         141.6991  142.6202  163.2299 O.3     1  UNL1       -0.4455
     24 C         143.5686  142.9181  165.0094 C.3     1  UNL1        0.0513
     25 C         142.1297  142.6697  164.6659 C.3     1  UNL1        0.2089
     26 C         139.2540  142.4725  160.2264 C.3     1  UNL1        0.1404
     27 N         139.5324  143.4618  159.1338 N.3     1  UNL1       -0.2628
     28 C         139.0518  143.1932  157.7385 C.3     1  UNL1        0.1049
     29 C         139.3302  144.1825  156.6459 C.3     1  UNL1        0.1595
     30 O         140.0892  145.4403  156.9485 O.3     1  UNL1       -0.3509
     31 C         140.5698  145.7089  158.3438 C.3     1  UNL1        0.1580
     32 C         140.2914  144.7197  159.4365 C.3     1  UNL1        0.0880
     33 C         140.7720  144.9883  160.8318 C.3     1  UNL1        0.0244
     34 C         139.9478  145.8305  161.7598 C.3     1  UNL1        0.0432
     35 C         139.0967  145.1779  162.8084 C.2     1  UNL1        0.0504
     36 O         137.7374  144.6534  162.4516 O.co2   1  UNL1       -0.5492
     37 O         139.6048  145.0497  164.2139 O.co2   1  UNL1       -0.5492
@<TRIPOS>UNITY_ATOM_ATTR
36 1
charge -1
@<TRIPOS>BOND
     1    24    25    1
     2    25    23    1
     3    23    21    1
     4    21    22    2
     5    21     1    1
     6     1     2    2
     7     2    26    1
     8    26    27    1
     9    27    28    1
    10    28    29    1
    11    29    30    1
    12    30    31    1
    13    31    32    1
    14    32    33    1
    15    33    34    1
    16    34    35    1
    17    35    36   ar
    18    35    37   ar
    19     2     3    1
    20     3     4    1
    21     4    16    1
    22    16    17   ar
    23    17    18   ar
    24    18    19   ar
    25    19    20   ar
    26     4     5    2
    27     5     6    1
    28     6     8    1
    29     8     9   ar
    30     9    10   ar
    31    10    11   ar
    32    11    12    1
    33    11    13   ar
    34    13    14   ar
    35    14    15    1
    36     6     1    1
    37    14     8   ar
    38    32    27    1
    39    20    16   ar
    40     3     7    1
@<TRIPOS>MOLECULE
*****
 37 40 0 0 0
SMALL
GASTEIGER

@<TRIPOS>ATOM
      1 C         139.3628  141.1597  161.0523 C.2     1  UNL1        0.1397
      2 C         139.5171  140.4612  159.7339 C.2     1  UNL1        0.1355
      3 N         139.4326  141.2431  158.4565 N.pl3   1  UNL1       -0.1998
      4 C         139.1937  142.7233  158.4976 C.2     1  UNL1        0.3442
      5 N         139.0394  143.4218  159.8160 N.2     1  UNL1       -0.0580
      6 C         139.1239  142.6399  161.0934 C.3     1  UNL1        0.2692
      7 H         139.5339  140.7846  157.5912 H       1  UNL1        0.2983
      8 C         138.9695  143.3385  162.4118 C.ar    1  UNL1        0.0371
      9 C         137.6383  143.3503  163.1030 C.ar    1  UNL1        0.0030
     10 C         137.4838  144.0488  164.4214 C.ar    1  UNL1        0.0295
     11 C         138.6607  144.7355  165.0487 C.ar    1  UNL1        0.1406
     12 F         138.5063  145.4339  166.3671 F       1  UNL1       -0.2042
     13 C         139.9920  144.7237  164.3576 C.ar    1  UNL1        0.0362
     14 C         140.1463  144.0251  163.0391 C.ar    1  UNL1        0.0372
     15 BR        141.4776  144.0133  162.3480 Br      1  UNL1       -0.0491
     16 C         139.1092  143.5051  157.2202 C.ar    1  UNL1        0.1931
     17 N         138.0903  143.3152  156.1360 N.ar    1  UNL1       -0.2297
     18 C         138.3801  144.3068  155.0485 C.ar    1  UNL1        0.1067
     19 C         139.5783  145.1097  155.4606 C.ar    1  UNL1        0.0577
     20 S         140.0289  144.6142  156.8028 S.2     1  UNL1       -0.0586
     21 C         139.4473  140.3779  162.3296 C.2     1  UNL1        0.3447
     22 O         138.3195  139.4745  162.7321 O.2     1  UNL1       -0.2450
     23 O         140.6596  140.4994  163.2046 O.3     1  UNL1       -0.4455
     24 C         139.7765  141.1765  165.5523 C.3     1  UNL1        0.0513
     25 C         140.5511  140.2361  164.6773 C.3     1  UNL1        0.2089
     26 C         139.7560  138.9809  159.6927 C.3     1  UNL1        0.1404
     27 N         140.5057  138.3738  158.5441 N.3     1  UNL1       -0.2628
     28 C         139.7591  137.8603  157.3488 C.3     1  UNL1        0.1049
     29 C         140.5088  137.2532  156.2001 C.3     1  UNL1        0.1595
     30 O         142.0052  137.1596  156.2468 O.3     1  UNL1       -0.3509
     31 C         142.7518  137.6731  157.4422 C.3     1  UNL1        0.1580
     32 C         142.0021  138.2802  158.5908 C.3     1  UNL1        0.0880
     33 C         142.7487  138.7937  159.7862 C.3     1  UNL1        0.0244
     34 C         143.2229  137.8388  160.8413 C.3     1  UNL1        0.0432
     35 C         142.5785  137.8374  162.1958 C.2     1  UNL1        0.0504
     36 O         141.2135  137.2423  162.3763 O.co2   1  UNL1       -0.5492
     37 O         143.2990  138.4309  163.3698 O.co2   1  UNL1       -0.5492
@<TRIPOS>UNITY_ATOM_ATTR
36 1
charge -1
@<TRIPOS>BOND
     1    24    25    1
     2    25    23    1
     3    23    21    1
     4    21    22    2
     5    21     1    1
     6     1     2    2
     7     2    26    1
     8    26    27    1
     9    27    28    1
    10    28    29    1
    11    29    30    1
    12    30    31    1
    13    31    32    1
    14    32    33    1
    15    33    34    1
    16    34    35    1
    17    35    36   ar
    18    35    37   ar
    19     2     3    1
    20     3     4    1
    21     4    16    1
    22    16    17   ar
    23    17    18   ar
    24    18    19   ar
    25    19    20   ar
    26     4     5    2
    27     5     6    1
    28     6     8    1
    29     8     9   ar
    30     9    10   ar
    31    10    11   ar
    32    11    12    1
    33    11    13   ar
    34    13    14   ar
    35    14    15    1
    36     6     1    1
    37    14     8   ar
    38    32    27    1
    39    20    16   ar
    40     3     7    1
@<TRIPOS>MOLECULE
*****
 37 40 0 0 0
SMALL
GASTEIGER

@<TRIPOS>ATOM
      1 C         141.3302  139.7686  164.1491 C.2     1  UNL1        0.1397
      2 C         141.5914  140.0217  162.6939 C.2     1  UNL1        0.1355
      3 N         141.2740  141.3605  162.0966 N.pl3   1  UNL1       -0.1998
      4 C         140.6954  142.4463  162.9546 C.2     1  UNL1        0.3442
      5 N         140.4342  142.1933  164.4098 N.2     1  UNL1       -0.0580
      6 C         140.7516  140.8545  165.0071 C.3     1  UNL1        0.2692
      7 H         141.4455  141.5266  161.1415 H       1  UNL1        0.2983
      8 C         140.4904  140.6015  166.4624 C.ar    1  UNL1        0.0371
      9 C         141.5170  140.9855  167.4864 C.ar    1  UNL1        0.0030
     10 C         141.2558  140.7325  168.9417 C.ar    1  UNL1        0.0295
     11 C         139.9680  140.0955  169.3729 C.ar    1  UNL1        0.1406
     12 F         139.7068  139.8426  170.8282 F       1  UNL1       -0.2042
     13 C         138.9414  139.7116  168.3489 C.ar    1  UNL1        0.0362
     14 C         139.2026  139.9646  166.8936 C.ar    1  UNL1        0.0372
     15 BR        138.1760  139.5806  165.8695 Br      1  UNL1       -0.0491
     16 C         140.3780  143.7852  162.3573 C.ar    1  UNL1        0.1931
     17 N         139.7311  144.9368  163.0682 N.ar    1  UNL1       -0.2297
     18 C         139.6051  146.0709  162.0946 C.ar    1  UNL1        0.1067
     19 C         140.1741  145.6202  160.7819 C.ar    1  UNL1        0.0577
     20 S         140.6518  144.2076  160.9443 S.2     1  UNL1       -0.0586
     21 C         141.6476  138.4298  164.7464 C.2     1  UNL1        0.3447
     22 O         140.6661  137.3021  164.6238 O.2     1  UNL1       -0.2450
     23 O         142.9465  138.2186  165.4662 O.3     1  UNL1       -0.4455
     24 C         145.0664  139.2455  164.3701 C.3     1  UNL1        0.0513
     25 C         144.0054  139.2803  165.4299 C.3     1  UNL1        0.2089
     26 C         142.1700  138.9358  161.8359 C.3     1  UNL1        0.1404
     27 N         142.4983  139.2106  160.3983 N.3     1  UNL1       -0.2628
     28 C         141.6760  138.5883  159.3090 C.3     1  UNL1        0.1049
     29 C         142.0043  138.8632  157.8714 C.3     1  UNL1        0.1595
     30 O         143.1549  139.7603  157.5231 O.3     1  UNL1       -0.3509
     31 C         143.9772  140.3826  158.6124 C.3     1  UNL1        0.1580
     32 C         143.6490  140.1077  160.0500 C.3     1  UNL1        0.0880
     33 C         144.4713  140.7300  161.1393 C.3     1  UNL1        0.0244
     34 C         144.7237  142.2086  161.1368 C.3     1  UNL1        0.0432
     35 C         144.2836  143.0465  162.3005 C.2     1  UNL1        0.0504
     36 O         144.0998  144.5257  162.1326 O.co2   1  UNL1       -0.5492
     37 O         144.0272  142.4053  163.6320 O.co2   1  UNL1       -0.5492
@<TRIPOS>UNITY_ATOM_ATTR
36 1
charge -1
@<TRIPOS>BOND
     1    24    25    1
     2    25    23    1
     3    23    21    1
     4    21    22    2
     5    21     1    1
     6     1     2    2
     7     2    26    1
     8    26    27    1
     9    27    28    1
    10    28    29    1
    11    29    30    1
    12    30    31    1
    13    31    32    1
    14    32    33    1
    15    33    34    1
    16    34    35    1
    17    35    36   ar
    18    35    37   ar
    19     2     3    1
    20     3     4    1
    21     4    16    1
    22    16    17   ar
    23    17    18   ar
    24    18    19   ar
    25    19    20   ar
    26     4     5    2
    27     5     6    1
    28     6     8    1
    29     8     9   ar
    30     9    10   ar
    31    10    11   ar
    32    11    12    1
    33    11    13   ar
    34    13    14   ar
    35    14    15    1
    36     6     1    1
    37    14     8   ar
    38    32    27    1
    39    20    16   ar
    40     3     7    1
@<TRIPOS>MOLECULE
*****
 37 40 0 0 0
SMALL
GASTEIGER

@<TRIPOS>ATOM
      1 C         140.5675  141.2772  161.0790 C.2     1  UNL1        0.1397
      2 C         140.8088  140.4524  159.8497 C.2     1  UNL1        0.1355
      3 N         139.8637  140.5430  158.6883 N.pl3   1  UNL1       -0.1998
      4 C         138.6774  141.4584  158.7564 C.2     1  UNL1        0.3442
      5 N         138.4362  142.2832  159.9858 N.2     1  UNL1       -0.0580
      6 C         139.3812  142.1926  161.1471 C.3     1  UNL1        0.2692
      7 H         140.0221  140.0016  157.8814 H       1  UNL1        0.2983
      8 C         139.1399  143.0175  162.3765 C.ar    1  UNL1        0.0371
      9 C         139.8943  144.2978  162.5806 C.ar    1  UNL1        0.0030
     10 C         139.6530  145.1227  163.8100 C.ar    1  UNL1        0.0295
     11 C         138.6574  144.6672  164.8353 C.ar    1  UNL1        0.1406
     12 F         138.4162  145.4921  166.0647 F       1  UNL1       -0.2042
     13 C         137.9031  143.3869  164.6313 C.ar    1  UNL1        0.0362
     14 C         138.1443  142.5620  163.4018 C.ar    1  UNL1        0.0372
     15 BR        137.3900  141.2816  163.1978 Br      1  UNL1       -0.0491
     16 C         137.7324  141.5490  157.5951 C.ar    1  UNL1        0.1931
     17 N         136.7223  140.5139  157.1974 N.ar    1  UNL1       -0.2297
     18 C         135.9971  141.0158  155.9841 C.ar    1  UNL1        0.1067
     19 C         136.5591  142.3612  155.6318 C.ar    1  UNL1        0.0577
     20 S         137.6315  142.6907  156.6274 S.2     1  UNL1       -0.0586
     21 C         141.5126  141.1866  162.2404 C.2     1  UNL1        0.3447
     22 O         142.6467  142.1606  162.3622 O.2     1  UNL1       -0.2450
     23 O         141.3234  140.1219  163.2799 O.3     1  UNL1       -0.4455
     24 C         141.2448  141.7613  165.2940 C.3     1  UNL1        0.0513
     25 C         140.8048  140.4851  164.6398 C.3     1  UNL1        0.2089
     26 C         141.9951  139.5369  159.7816 C.3     1  UNL1        0.1404
     27 N         142.8026  139.4482  158.5206 N.3     1  UNL1       -0.2628
     28 C         142.5601  138.3291  157.5518 C.3     1  UNL1        0.1049
     29 C         143.3677  138.2405  156.2908 C.3     1  UNL1        0.1595
     30 O         144.4178  139.2710  155.9987 O.3     1  UNL1       -0.3509
     31 C         144.6603  140.3902  156.9676 C.3     1  UNL1        0.1580
     32 C         143.8528  140.4788  158.2285 C.3     1  UNL1        0.0880
     33 C         144.0953  141.5979  159.1974 C.3     1  UNL1        0.0244
     34 C         143.8673  143.0188  158.7744 C.3     1  UNL1        0.0432
     35 C         142.4892  143.6080  158.8370 C.2     1  UNL1        0.0504
     36 O         142.1498  144.6105  159.8998 O.co2   1  UNL1       -0.5492
     37 O         141.4507  143.1947  157.8367 O.co2   1  UNL1       -0.5492
@<TRIPOS>UNITY_ATOM_ATTR
36 1
charge -1
@<TRIPOS>BOND
     1    24    25    1
     2    25    23    1
     3    23    21    1
     4    21    22    2
     5    21     1    1
     6     1     2    2
     7     2    26    1
     8    26    27    1
     9    27    28    1
    10    28    29    1
    11    29    30    1
    12    30    31    1
    13    31    32    1
    14    32    33    1
    15    33    34    1
    16    34    35    1
    17    35    36   ar
    18    35    37   ar
    19     2     3    1
    20     3     4    1
    21     4    16    1
    22    16    17   ar
    23    17    18   ar
    24    18    19   ar
    25    19    20   ar
    26     4     5    2
    27     5     6    1
    28     6     8    1
    29     8     9   ar
    30     9    10   ar
    31    10    11   ar
    32    11    12    1
    33    11    13   ar
    34    13    14   ar
    35    14    15    1
    36     6     1    1
    37    14     8   ar
    38    32    27    1
    39    20    16   ar
    40     3     7    1
@<TRIPOS>MOLECULE
*****
 37 40 0 0 0
SMALL
GASTEIGER

@<TRIPOS>ATOM
      1 C         140.9836  140.8130  161.5675 C.2     1  UNL1        0.1397
      2 C         140.5066  141.2567  160.2164 C.2     1  UNL1        0.1355
      3 N         141.0354  140.5935  158.9793 N.pl3   1  UNL1       -0.1998
      4 C         142.0412  139.4866  159.0932 C.2     1  UNL1        0.3442
      5 N         142.5182  139.0428  160.4443 N.2     1  UNL1       -0.0580
      6 C         141.9894  139.7060  161.6815 C.3     1  UNL1        0.2692
      7 H         140.7223  140.8848  158.0925 H       1  UNL1        0.2983
      8 C         142.4665  139.2622  163.0326 C.ar    1  UNL1        0.0371
      9 C         143.6898  139.8845  163.6377 C.ar    1  UNL1        0.0030
     10 C         144.1669  139.4407  164.9888 C.ar    1  UNL1        0.0295
     11 C         143.4206  138.3746  165.7348 C.ar    1  UNL1        0.1406
     12 F         143.8977  137.9309  167.0859 F       1  UNL1       -0.2042
     13 C         142.1972  137.7523  165.1297 C.ar    1  UNL1        0.0362
     14 C         141.7202  138.1961  163.7786 C.ar    1  UNL1        0.0372
     15 BR        140.4968  137.5738  163.1735 Br      1  UNL1       -0.0491
     16 C         142.5699  138.8234  157.8560 C.ar    1  UNL1        0.1931
     17 N         143.1892  139.5177  156.6795 N.ar    1  UNL1       -0.2297
     18 C         143.5742  138.4729  155.6745 C.ar    1  UNL1        0.1067
     19 C         143.1930  137.1327  156.2300 C.ar    1  UNL1        0.0577
     20 S         142.5723  137.3493  157.5782 S.2     1  UNL1       -0.0586
     21 C         140.4549  141.4762  162.8047 C.2     1  UNL1        0.3447
     22 O         141.2185  142.6018  163.4370 O.2     1  UNL1       -0.2450
     23 O         139.1625  141.0138  163.4095 O.3     1  UNL1       -0.4455
     24 C         138.2118  139.6979  165.4380 C.3     1  UNL1        0.0513
     25 C         139.0591  140.8088  164.8919 C.3     1  UNL1        0.2089
     26 C         139.5008  142.3637  160.1025 C.3     1  UNL1        0.1404
     27 N         139.6728  143.4290  159.0606 N.3     1  UNL1       -0.2628
     28 C         139.2455  143.1706  157.6461 C.3     1  UNL1        0.1049
     29 C         139.4175  144.2360  156.6042 C.3     1  UNL1        0.1595
     30 O         140.0168  145.5596  156.9767 O.3     1  UNL1       -0.3509
     31 C         140.4441  145.8180  158.3912 C.3     1  UNL1        0.1580
     32 C         140.2721  144.7527  159.4331 C.3     1  UNL1        0.0880
     33 C         140.6994  145.0110  160.8475 C.3     1  UNL1        0.0244
     34 C         139.8109  145.7937  161.7684 C.3     1  UNL1        0.0432
     35 C         138.9741  145.0805  162.7887 C.2     1  UNL1        0.0504
     36 O         139.3547  145.1310  164.2387 O.co2   1  UNL1       -0.5492
     37 O         137.7566  144.3169  162.3591 O.co2   1  UNL1       -0.5492
@<TRIPOS>UNITY_ATOM_ATTR
36 1
charge -1
@<TRIPOS>BOND
     1    24    25    1
     2    25    23    1
     3    23    21    1
     4    21    22    2
     5    21     1    1
     6     1     2    2
     7     2    26    1
     8    26    27    1
     9    27    28    1
    10    28    29    1
    11    29    30    1
    12    30    31    1
    13    31    32    1
    14    32    33    1
    15    33    34    1
    16    34    35    1
    17    35    36   ar
    18    35    37   ar
    19     2     3    1
    20     3     4    1
    21     4    16    1
    22    16    17   ar
    23    17    18   ar
    24    18    19   ar
    25    19    20   ar
    26     4     5    2
    27     5     6    1
    28     6     8    1
    29     8     9   ar
    30     9    10   ar
    31    10    11   ar
    32    11    12    1
    33    11    13   ar
    34    13    14   ar
    35    14    15    1
    36     6     1    1
    37    14     8   ar
    38    32    27    1
    39    20    16   ar
    40     3     7    1
