@<TRIPOS>MOLECULE
*****
 33 36 0 0 0
SMALL
GASTEIGER

@<TRIPOS>ATOM
      1 N         139.1877  139.6809  163.5670 N.pl3   1  UNL1       -0.3074
      2 C         138.7664  138.4007  162.9085 C.3     1  UNL1        0.0908
      3 C         138.7461  138.2983  161.4121 C.3     1  UNL1        0.0229
      4 C         139.1470  139.4761  160.5742 C.3     1  UNL1        0.0194
      5 C         139.5682  140.7564  161.2328 C.3     1  UNL1        0.0229
      6 C         139.5886  140.8587  162.7291 C.3     1  UNL1        0.0908
      7 C         140.1956  140.8124  167.2349 C.ar    1  UNL1        0.1403
      8 C         139.2489  139.9881  168.0560 C.ar    1  UNL1        0.0370
      9 C         138.2818  139.0615  167.3808 C.ar    1  UNL1        0.0044
     10 C         138.2613  138.9590  165.8845 C.ar    1  UNL1        0.0147
     11 C         139.2081  139.7833  165.0634 C.ar    1  UNL1        0.0509
     12 C         140.1752  140.7100  165.7386 C.ar    1  UNL1        0.0514
     13 O         141.1628  141.7390  167.9101 O.3     1  UNL1       -0.4693
     14 C         141.1982  141.8252  169.4072 C.3     1  UNL1        0.2469
     15 O         140.7633  144.2737  170.1592 O.co2   1  UNL1       -0.5454
     16 C         140.3469  142.8332  170.1208 C.2     1  UNL1        0.0940
     17 O         139.0792  142.4006  170.7960 O.co2   1  UNL1       -0.5454
     18 C         139.1266  139.3738  159.0779 C.3     1  UNL1        0.0722
     19 N         140.1446  138.5297  158.3700 N.3     1  UNL1       -0.2724
     20 C         141.5300  138.3983  158.9298 C.3     1  UNL1        0.0758
     21 C         142.5481  137.5542  158.2219 C.3     1  UNL1        0.0609
     22 C         142.1807  136.8416  156.9541 C.3     1  UNL1        0.1687
     23 C         140.7953  136.9730  156.3943 C.3     1  UNL1        0.0609
     24 C         139.7773  137.8171  157.1022 C.3     1  UNL1        0.0758
     25 O         143.1988  135.9976  156.2462 O.3     1  UNL1       -0.4790
     26 C         143.1237  134.5019  156.3324 C.ar    1  UNL1        0.1393
     27 C         142.0418  133.7620  155.6031 C.ar    1  UNL1        0.0378
     28 C         141.9668  132.2664  155.6892 C.ar    1  UNL1        0.0154
     29 C         142.9736  131.5106  156.5047 C.ar    1  UNL1        0.0684
     30 CL        142.8986  130.0150  156.5908 Cl      1  UNL1       -0.0814
     31 C         144.0556  132.2505  157.2341 C.ar    1  UNL1        0.0712
     32 CL        145.0625  131.4948  158.0496 Cl      1  UNL1       -0.0813
     33 C         144.1306  133.7462  157.1479 C.ar    1  UNL1        0.0491
@<TRIPOS>UNITY_ATOM_ATTR
15 1
charge -1
@<TRIPOS>BOND
     1    15    16   ar
     2    16    17   ar
     3    16    14    1
     4    14    13    1
     5    13     7    1
     6     7     8   ar
     7     8     9   ar
     8     9    10   ar
     9    10    11   ar
    10    11     1    1
    11     1     2    1
    12     2     3    1
    13     3     4    1
    14     4    18    1
    15    18    19    1
    16    19    20    1
    17    20    21    1
    18    21    22    1
    19    22    25    1
    20    25    26    1
    21    26    27   ar
    22    27    28   ar
    23    28    29   ar
    24    29    30    1
    25    29    31   ar
    26    31    32    1
    27    31    33   ar
    28    22    23    1
    29    23    24    1
    30     4     5    1
    31     5     6    1
    32    11    12   ar
    33    12     7   ar
    34     6     1    1
    35    24    19    1
    36    33    26   ar
@<TRIPOS>MOLECULE
*****
 33 36 0 0 0
SMALL
GASTEIGER

@<TRIPOS>ATOM
      1 N         140.7883  139.6079  164.0672 N.pl3   1  UNL1       -0.3074
      2 C         141.0304  140.8125  163.2068 C.3     1  UNL1        0.0908
      3 C         140.6614  140.7824  161.7532 C.3     1  UNL1        0.0229
      4 C         140.0503  139.5476  161.1600 C.3     1  UNL1        0.0194
      5 C         139.8081  138.3430  162.0205 C.3     1  UNL1        0.0229
      6 C         140.1772  138.3732  163.4741 C.3     1  UNL1        0.0908
      7 C         140.5588  140.2137  167.9826 C.ar    1  UNL1        0.1403
      8 C         141.8952  139.6984  168.4280 C.ar    1  UNL1        0.0370
      9 C         142.8627  139.1529  167.4198 C.ar    1  UNL1        0.0044
     10 C         142.4937  139.1228  165.9662 C.ar    1  UNL1        0.0147
     11 C         141.1573  139.6381  165.5209 C.ar    1  UNL1        0.0509
     12 C         140.1899  140.1836  166.5291 C.ar    1  UNL1        0.0514
     13 O         139.5914  140.7592  168.9909 O.3     1  UNL1       -0.4693
     14 C         140.0280  140.9734  170.4098 C.3     1  UNL1        0.2469
     15 O         139.5297  143.4797  170.8791 O.co2   1  UNL1       -0.5454
     16 C         140.4912  142.3287  170.8555 C.2     1  UNL1        0.0940
     17 O         141.9161  142.5329  171.2775 O.co2   1  UNL1       -0.5454
     18 C         139.6812  139.5174  159.7065 C.3     1  UNL1        0.0722
     19 N         140.4502  138.6491  158.7554 N.3     1  UNL1       -0.2724
     20 C         141.9007  138.3618  159.0076 C.3     1  UNL1        0.0758
     21 C         142.6697  137.4935  158.0564 C.3     1  UNL1        0.0609
     22 C         141.9882  136.9125  156.8531 C.3     1  UNL1        0.1687
     23 C         140.5378  137.1998  156.6009 C.3     1  UNL1        0.0609
     24 C         139.7688  138.0681  157.5520 C.3     1  UNL1        0.0758
     25 O         142.7572  136.0441  155.9020 O.3     1  UNL1       -0.4790
     26 C         142.8272  134.5629  156.1280 C.ar    1  UNL1        0.1393
     27 C         143.8602  133.9936  157.0547 C.ar    1  UNL1        0.0378
     28 C         143.9301  132.5124  157.2807 C.ar    1  UNL1        0.0154
     29 C         142.9671  131.6005  156.5800 C.ar    1  UNL1        0.0684
     30 CL        143.0370  130.1192  156.8060 Cl      1  UNL1       -0.0814
     31 C         141.9340  132.1698  155.6533 C.ar    1  UNL1        0.0712
     32 CL        140.9710  131.2579  154.9526 Cl      1  UNL1       -0.0813
     33 C         141.8641  133.6510  155.4273 C.ar    1  UNL1        0.0491
@<TRIPOS>UNITY_ATOM_ATTR
15 1
charge -1
@<TRIPOS>BOND
     1    15    16   ar
     2    16    17   ar
     3    16    14    1
     4    14    13    1
     5    13     7    1
     6     7     8   ar
     7     8     9   ar
     8     9    10   ar
     9    10    11   ar
    10    11     1    1
    11     1     2    1
    12     2     3    1
    13     3     4    1
    14     4    18    1
    15    18    19    1
    16    19    20    1
    17    20    21    1
    18    21    22    1
    19    22    25    1
    20    25    26    1
    21    26    27   ar
    22    27    28   ar
    23    28    29   ar
    24    29    30    1
    25    29    31   ar
    26    31    32    1
    27    31    33   ar
    28    22    23    1
    29    23    24    1
    30     4     5    1
    31     5     6    1
    32    11    12   ar
    33    12     7   ar
    34     6     1    1
    35    24    19    1
    36    33    26   ar
@<TRIPOS>MOLECULE
*****
 33 36 0 0 0
SMALL
GASTEIGER

@<TRIPOS>ATOM
      1 N         140.1698  140.1778  163.6794 N.pl3   1  UNL1       -0.3074
      2 C         139.6296  141.3052  162.8506 C.3     1  UNL1        0.0908
      3 C         140.1116  141.4997  161.4435 C.3     1  UNL1        0.0229
      4 C         141.1338  140.5666  160.8653 C.3     1  UNL1        0.0194
      5 C         141.6741  139.4391  161.6941 C.3     1  UNL1        0.0229
      6 C         141.1920  139.2447  163.1012 C.3     1  UNL1        0.0908
      7 C         139.8733  140.5171  167.6224 C.ar    1  UNL1        0.1403
      8 C         138.7238  139.5945  167.9007 C.ar    1  UNL1        0.0370
      9 C         138.0564  138.8663  166.7719 C.ar    1  UNL1        0.0044
     10 C         138.5383  139.0607  165.3648 C.ar    1  UNL1        0.0147
     11 C         139.6878  139.9833  165.0865 C.ar    1  UNL1        0.0509
     12 C         140.3553  140.7115  166.2153 C.ar    1  UNL1        0.0514
     13 O         140.5408  141.2453  168.7512 O.3     1  UNL1       -0.4693
     14 C         140.4318  142.7381  168.8492 C.3     1  UNL1        0.2469
     15 O         140.1138  144.8816  170.2825 O.co2   1  UNL1       -0.5454
     16 C         140.2223  143.3887  170.1844 C.2     1  UNL1        0.0940
     17 O         140.1213  142.5465  171.4216 O.co2   1  UNL1       -0.5454
     18 C         141.6159  140.7610  159.4582 C.3     1  UNL1        0.0722
     19 N         141.5311  139.6325  158.4738 N.3     1  UNL1       -0.2724
     20 C         140.2607  138.8458  158.3422 C.3     1  UNL1        0.0758
     21 C         140.1760  137.7172  157.3577 C.3     1  UNL1        0.0609
     22 C         141.3616  137.3754  156.5048 C.3     1  UNL1        0.1687
     23 C         142.6319  138.1621  156.6363 C.3     1  UNL1        0.0609
     24 C         142.7167  139.2906  157.6208 C.3     1  UNL1        0.0758
     25 O         141.2768  136.2469  155.5203 O.3     1  UNL1       -0.4790
     26 C         142.1785  135.0568  155.6641 C.ar    1  UNL1        0.1393
     27 C         143.0249  134.9012  156.8927 C.ar    1  UNL1        0.0378
     28 C         143.9266  133.7112  157.0364 C.ar    1  UNL1        0.0154
     29 C         143.9820  132.6767  155.9516 C.ar    1  UNL1        0.0684
     30 CL        144.8837  131.4867  156.0954 Cl      1  UNL1       -0.0814
     31 C         143.1356  132.8323  154.7230 C.ar    1  UNL1        0.0712
     32 CL        143.1909  131.7978  153.6382 Cl      1  UNL1       -0.0813
     33 C         142.2338  134.0223  154.5792 C.ar    1  UNL1        0.0491
@<TRIPOS>UNITY_ATOM_ATTR
15 1
charge -1
@<TRIPOS>BOND
     1    15    16   ar
     2    16    17   ar
     3    16    14    1
     4    14    13    1
     5    13     7    1
     6     7     8   ar
     7     8     9   ar
     8     9    10   ar
     9    10    11   ar
    10    11     1    1
    11     1     2    1
    12     2     3    1
    13     3     4    1
    14     4    18    1
    15    18    19    1
    16    19    20    1
    17    20    21    1
    18    21    22    1
    19    22    25    1
    20    25    26    1
    21    26    27   ar
    22    27    28   ar
    23    28    29   ar
    24    29    30    1
    25    29    31   ar
    26    31    32    1
    27    31    33   ar
    28    22    23    1
    29    23    24    1
    30     4     5    1
    31     5     6    1
    32    11    12   ar
    33    12     7   ar
    34     6     1    1
    35    24    19    1
    36    33    26   ar
@<TRIPOS>MOLECULE
*****
 33 36 0 0 0
SMALL
GASTEIGER

@<TRIPOS>ATOM
      1 N         141.2148  138.7807  158.2532 N.pl3   1  UNL1       -0.3074
      2 C         139.9312  139.4053  157.7928 C.3     1  UNL1        0.0908
      3 C         138.8167  139.6362  158.7699 C.3     1  UNL1        0.0229
      4 C         138.9859  139.2423  160.2073 C.3     1  UNL1        0.0194
      5 C         140.2696  138.6176  160.6677 C.3     1  UNL1        0.0229
      6 C         141.3841  138.3868  159.6906 C.3     1  UNL1        0.0908
      7 C         143.7340  136.9323  155.8063 C.ar    1  UNL1        0.1403
      8 C         144.5583  138.0881  155.3220 C.ar    1  UNL1        0.0370
      9 C         144.2681  139.4748  155.8147 C.ar    1  UNL1        0.0044
     10 C         143.1536  139.7057  156.7918 C.ar    1  UNL1        0.0147
     11 C         142.3294  138.5498  157.2761 C.ar    1  UNL1        0.0509
     12 C         142.6196  137.1631  156.7833 C.ar    1  UNL1        0.0514
     13 O         144.0242  135.5455  155.3135 O.3     1  UNL1       -0.4693
     14 C         143.8922  134.3762  156.2436 C.3     1  UNL1        0.2469
     15 O         142.5520  132.3134  157.0794 O.co2   1  UNL1       -0.5454
     16 C         142.6358  133.5568  156.2447 C.2     1  UNL1        0.0940
     17 O         141.4631  133.9810  155.4110 O.co2   1  UNL1       -0.5454
     18 C         137.8714  139.4731  161.1844 C.3     1  UNL1        0.0722
     19 N         138.1448  139.4264  162.6585 N.3     1  UNL1       -0.2724
     20 C         138.5318  138.1314  163.3089 C.3     1  UNL1        0.0758
     21 C         138.8052  138.0847  164.7831 C.3     1  UNL1        0.0609
     22 C         138.6915  139.3331  165.6068 C.3     1  UNL1        0.1687
     23 C         138.3045  140.6282  164.9564 C.3     1  UNL1        0.0609
     24 C         138.0311  140.6749  163.4823 C.3     1  UNL1        0.0758
     25 O         138.9649  139.2864  167.0809 O.3     1  UNL1       -0.4790
     26 C         140.1322  140.0360  167.6514 C.ar    1  UNL1        0.1393
     27 C         141.4998  139.8554  167.0624 C.ar    1  UNL1        0.0378
     28 C         142.6671  140.6051  167.6328 C.ar    1  UNL1        0.0154
     29 C         142.4668  141.5353  168.7923 C.ar    1  UNL1        0.0684
     30 CL        143.6341  142.2850  169.3628 Cl      1  UNL1       -0.0814
     31 C         141.0991  141.7160  169.3814 C.ar    1  UNL1        0.0712
     32 CL        140.8988  142.6463  170.5408 Cl      1  UNL1       -0.0813
     33 C         139.9318  140.9664  168.8109 C.ar    1  UNL1        0.0491
@<TRIPOS>UNITY_ATOM_ATTR
15 1
charge -1
@<TRIPOS>BOND
     1    15    16   ar
     2    16    17   ar
     3    16    14    1
     4    14    13    1
     5    13     7    1
     6     7     8   ar
     7     8     9   ar
     8     9    10   ar
     9    10    11   ar
    10    11     1    1
    11     1     2    1
    12     2     3    1
    13     3     4    1
    14     4    18    1
    15    18    19    1
    16    19    20    1
    17    20    21    1
    18    21    22    1
    19    22    25    1
    20    25    26    1
    21    26    27   ar
    22    27    28   ar
    23    28    29   ar
    24    29    30    1
    25    29    31   ar
    26    31    32    1
    27    31    33   ar
    28    22    23    1
    29    23    24    1
    30     4     5    1
    31     5     6    1
    32    11    12   ar
    33    12     7   ar
    34     6     1    1
    35    24    19    1
    36    33    26   ar
@<TRIPOS>MOLECULE
*****
 33 36 0 0 0
SMALL
GASTEIGER

@<TRIPOS>ATOM
      1 N         141.6375  136.5634  156.6452 N.pl3   1  UNL1       -0.3074
      2 C         140.3086  137.2524  156.7409 C.3     1  UNL1        0.0908
      3 C         140.0919  138.3247  157.7672 C.3     1  UNL1        0.0229
      4 C         141.2041  138.7080  158.6978 C.3     1  UNL1        0.0194
      5 C         142.5331  138.0190  158.6021 C.3     1  UNL1        0.0229
      6 C         142.7498  136.9467  157.5758 C.3     1  UNL1        0.0908
      7 C         142.7382  133.1328  154.9812 C.ar    1  UNL1        0.1403
      8 C         142.2878  133.3466  153.5665 C.ar    1  UNL1        0.0370
      9 C         141.6207  134.6327  153.1780 C.ar    1  UNL1        0.0044
     10 C         141.4039  135.7050  154.2042 C.ar    1  UNL1        0.0147
     11 C         141.8543  135.4911  155.6189 C.ar    1  UNL1        0.0509
     12 C         142.5214  134.2050  156.0074 C.ar    1  UNL1        0.0514
     13 O         143.4053  131.8467  155.3696 O.3     1  UNL1       -0.4693
     14 C         144.7596  131.8691  156.0140 C.3     1  UNL1        0.2469
     15 O         144.9345  133.1129  158.2882 O.co2   1  UNL1       -0.5454
     16 C         144.8797  131.8326  157.5087 C.2     1  UNL1        0.0940
     17 O         144.9451  130.5157  158.2240 O.co2   1  UNL1       -0.5454
     18 C         140.9874  139.7802  159.7241 C.3     1  UNL1        0.0722
     19 N         141.4169  139.5573  161.1439 N.3     1  UNL1       -0.2724
     20 C         141.2098  138.2189  161.7887 C.3     1  UNL1        0.0758
     21 C         141.6393  137.9959  163.2085 C.3     1  UNL1        0.0609
     22 C         142.2759  139.1113  163.9835 C.3     1  UNL1        0.1687
     23 C         142.4830  140.4497  163.3386 C.3     1  UNL1        0.0609
     24 C         142.0535  140.6727  161.9189 C.3     1  UNL1        0.0758
     25 O         142.7054  138.8883  165.4032 O.3     1  UNL1       -0.4790
     26 C         141.8096  139.3046  166.5320 C.ar    1  UNL1        0.1393
     27 C         140.3464  139.5251  166.2861 C.ar    1  UNL1        0.0378
     28 C         139.4506  139.9415  167.4149 C.ar    1  UNL1        0.0154
     29 C         140.0179  140.1373  168.7895 C.ar    1  UNL1        0.0684
     30 CL        139.1220  140.5536  169.9183 Cl      1  UNL1       -0.0814
     31 C         141.4811  139.9168  169.0355 C.ar    1  UNL1        0.0712
     32 CL        142.0484  140.1127  170.4102 Cl      1  UNL1       -0.0813
     33 C         142.3770  139.5005  167.9067 C.ar    1  UNL1        0.0491
@<TRIPOS>UNITY_ATOM_ATTR
15 1
charge -1
@<TRIPOS>BOND
     1    15    16   ar
     2    16    17   ar
     3    16    14    1
     4    14    13    1
     5    13     7    1
     6     7     8   ar
     7     8     9   ar
     8     9    10   ar
     9    10    11   ar
    10    11     1    1
    11     1     2    1
    12     2     3    1
    13     3     4    1
    14     4    18    1
    15    18    19    1
    16    19    20    1
    17    20    21    1
    18    21    22    1
    19    22    25    1
    20    25    26    1
    21    26    27   ar
    22    27    28   ar
    23    28    29   ar
    24    29    30    1
    25    29    31   ar
    26    31    32    1
    27    31    33   ar
    28    22    23    1
    29    23    24    1
    30     4     5    1
    31     5     6    1
    32    11    12   ar
    33    12     7   ar
    34     6     1    1
    35    24    19    1
    36    33    26   ar
@<TRIPOS>MOLECULE
*****
 33 36 0 0 0
SMALL
GASTEIGER

@<TRIPOS>ATOM
      1 N         140.5441  141.3258  163.8135 N.pl3   1  UNL1       -0.3074
      2 C         139.7871  142.3656  163.0417 C.3     1  UNL1        0.0908
      3 C         140.4298  143.0447  161.8686 C.3     1  UNL1        0.0229
      4 C         141.8294  142.6839  161.4675 C.3     1  UNL1        0.0194
      5 C         142.5864  141.6441  162.2395 C.3     1  UNL1        0.0229
      6 C         141.9437  140.9651  163.4124 C.3     1  UNL1        0.0908
      7 C         139.7820  140.2086  167.5446 C.ar    1  UNL1        0.1403
      8 C         138.6163  139.2887  167.3326 C.ar    1  UNL1        0.0370
      9 C         138.0932  139.0479  165.9475 C.ar    1  UNL1        0.0044
     10 C         138.7358  139.7269  164.7745 C.ar    1  UNL1        0.0147
     11 C         139.9015  140.6468  164.9866 C.ar    1  UNL1        0.0509
     12 C         140.4246  140.8876  166.3716 C.ar    1  UNL1        0.0514
     13 O         140.3051  140.4494  168.9297 O.3     1  UNL1       -0.4693
     14 C         140.5187  141.8517  169.4174 C.3     1  UNL1        0.2469
     15 O         139.2648  143.3695  171.1127 O.co2   1  UNL1       -0.5454
     16 C         140.1787  142.2134  170.8329 C.2     1  UNL1        0.0940
     17 O         140.7526  141.4190  171.9685 O.co2   1  UNL1       -0.5454
     18 C         142.4721  143.3629  160.2945 C.3     1  UNL1        0.0722
     19 N         141.6249  143.8735  159.1669 N.3     1  UNL1       -0.2724
     20 C         141.3151  145.3376  159.0649 C.3     1  UNL1        0.0758
     21 C         140.4679  145.8481  157.9372 C.3     1  UNL1        0.0609
     22 C         139.9305  144.8946  156.9116 C.3     1  UNL1        0.1687
     23 C         140.2403  143.4305  157.0136 C.3     1  UNL1        0.0609
     24 C         141.0874  142.9199  158.1413 C.3     1  UNL1        0.0758
     25 O         139.0833  145.4052  155.7840 O.3     1  UNL1       -0.4790
     26 C         139.4323  146.6989  155.1099 C.ar    1  UNL1        0.1393
     27 C         140.3669  146.7052  153.9368 C.ar    1  UNL1        0.0378
     28 C         140.7159  147.9989  153.2627 C.ar    1  UNL1        0.0154
     29 C         140.1303  149.2865  153.7618 C.ar    1  UNL1        0.0684
     30 CL        140.4793  150.5803  153.0877 Cl      1  UNL1       -0.0814
     31 C         139.1956  149.2803  154.9350 C.ar    1  UNL1        0.0712
     32 CL        138.6100  150.5679  155.4342 Cl      1  UNL1       -0.0813
     33 C         138.8466  147.9866  155.6091 C.ar    1  UNL1        0.0491
@<TRIPOS>UNITY_ATOM_ATTR
15 1
charge -1
@<TRIPOS>BOND
     1    15    16   ar
     2    16    17   ar
     3    16    14    1
     4    14    13    1
     5    13     7    1
     6     7     8   ar
     7     8     9   ar
     8     9    10   ar
     9    10    11   ar
    10    11     1    1
    11     1     2    1
    12     2     3    1
    13     3     4    1
    14     4    18    1
    15    18    19    1
    16    19    20    1
    17    20    21    1
    18    21    22    1
    19    22    25    1
    20    25    26    1
    21    26    27   ar
    22    27    28   ar
    23    28    29   ar
    24    29    30    1
    25    29    31   ar
    26    31    32    1
    27    31    33   ar
    28    22    23    1
    29    23    24    1
    30     4     5    1
    31     5     6    1
    32    11    12   ar
    33    12     7   ar
    34     6     1    1
    35    24    19    1
    36    33    26   ar
@<TRIPOS>MOLECULE
*****
 33 36 0 0 0
SMALL
GASTEIGER

@<TRIPOS>ATOM
      1 N         142.7792  137.7045  158.3349 N.pl3   1  UNL1       -0.3074
      2 C         143.0724  139.1471  158.0469 C.3     1  UNL1        0.0908
      3 C         143.5296  140.0544  159.1505 C.3     1  UNL1        0.0229
      4 C         143.6936  139.5190  160.5421 C.3     1  UNL1        0.0194
      5 C         143.4004  138.0763  160.8300 C.3     1  UNL1        0.0229
      6 C         142.9432  137.1692  159.7264 C.3     1  UNL1        0.0908
      7 C         142.5423  134.5690  155.9136 C.ar    1  UNL1        0.1403
      8 C         141.4076  134.9828  155.0242 C.ar    1  UNL1        0.0370
      9 C         140.7300  136.3038  155.2383 C.ar    1  UNL1        0.0044
     10 C         141.1872  137.2110  156.3419 C.ar    1  UNL1        0.0147
     11 C         142.3219  136.7973  157.2313 C.ar    1  UNL1        0.0509
     12 C         142.9995  135.4763  157.0172 C.ar    1  UNL1        0.0514
     13 O         143.2199  133.2480  155.6995 O.3     1  UNL1       -0.4693
     14 C         142.6997  132.0187  156.3836 C.3     1  UNL1        0.2469
     15 O         143.3829  129.9439  157.7902 O.co2   1  UNL1       -0.5454
     16 C         143.6080  130.8475  156.6143 C.2     1  UNL1        0.0940
     17 O         144.7417  130.5800  155.6691 O.co2   1  UNL1       -0.5454
     18 C         144.1508  140.4262  161.6456 C.3     1  UNL1        0.0722
     19 N         143.8215  140.0975  163.0716 N.3     1  UNL1       -0.2724
     20 C         144.8238  139.3807  163.9269 C.3     1  UNL1        0.0758
     21 C         144.4944  139.0520  165.3529 C.3     1  UNL1        0.0609
     22 C         143.1626  139.4402  165.9236 C.3     1  UNL1        0.1687
     23 C         142.1603  140.1570  165.0684 C.3     1  UNL1        0.0609
     24 C         142.4897  140.4857  163.6424 C.3     1  UNL1        0.0758
     25 O         142.8333  139.1115  167.3496 O.3     1  UNL1       -0.4790
     26 C         142.0528  140.0847  168.1826 C.ar    1  UNL1        0.1393
     27 C         140.5648  139.9414  168.3064 C.ar    1  UNL1        0.0378
     28 C         139.7844  140.9146  169.1394 C.ar    1  UNL1        0.0154
     29 C         140.4919  142.0310  169.8485 C.ar    1  UNL1        0.0684
     30 CL        139.7114  143.0042  170.6815 Cl      1  UNL1       -0.0814
     31 C         141.9799  142.1743  169.7247 C.ar    1  UNL1        0.0712
     32 CL        142.6875  143.2908  170.4338 Cl      1  UNL1       -0.0813
     33 C         142.7604  141.2011  168.8917 C.ar    1  UNL1        0.0491
@<TRIPOS>UNITY_ATOM_ATTR
15 1
charge -1
@<TRIPOS>BOND
     1    15    16   ar
     2    16    17   ar
     3    16    14    1
     4    14    13    1
     5    13     7    1
     6     7     8   ar
     7     8     9   ar
     8     9    10   ar
     9    10    11   ar
    10    11     1    1
    11     1     2    1
    12     2     3    1
    13     3     4    1
    14     4    18    1
    15    18    19    1
    16    19    20    1
    17    20    21    1
    18    21    22    1
    19    22    25    1
    20    25    26    1
    21    26    27   ar
    22    27    28   ar
    23    28    29   ar
    24    29    30    1
    25    29    31   ar
    26    31    32    1
    27    31    33   ar
    28    22    23    1
    29    23    24    1
    30     4     5    1
    31     5     6    1
    32    11    12   ar
    33    12     7   ar
    34     6     1    1
    35    24    19    1
    36    33    26   ar
@<TRIPOS>MOLECULE
*****
 33 36 0 0 0
SMALL
GASTEIGER

@<TRIPOS>ATOM
      1 N         138.2812  143.8563  155.8566 N.pl3   1  UNL1       -0.3074
      2 C         138.6766  142.9841  157.0111 C.3     1  UNL1        0.0908
      3 C         139.6502  143.4898  158.0341 C.3     1  UNL1        0.0229
      4 C         140.2283  144.8676  157.9026 C.3     1  UNL1        0.0194
      5 C         139.8328  145.7398  156.7480 C.3     1  UNL1        0.0229
      6 C         138.8593  145.2341  155.7251 C.3     1  UNL1        0.0908
      7 C         135.3300  141.7955  154.1852 C.ar    1  UNL1        0.1403
      8 C         135.3606  142.3393  152.7876 C.ar    1  UNL1        0.0370
      9 C         136.3647  143.3888  152.4130 C.ar    1  UNL1        0.0044
     10 C         137.3382  143.8945  153.4360 C.ar    1  UNL1        0.0147
     11 C         137.3076  143.3506  154.8335 C.ar    1  UNL1        0.0509
     12 C         136.3035  142.3012  155.2082 C.ar    1  UNL1        0.0514
     13 O         134.3258  140.7461  154.5598 O.3     1  UNL1       -0.4693
     14 C         133.3072  141.0286  155.6240 C.3     1  UNL1        0.2469
     15 O         133.8570  138.7737  156.7915 O.co2   1  UNL1       -0.5454
     16 C         132.9765  139.9790  156.6433 C.2     1  UNL1        0.0940
     17 O         131.7652  140.1346  157.5143 O.co2   1  UNL1       -0.5454
     18 C         141.2018  145.3733  158.9256 C.3     1  UNL1        0.0722
     19 N         141.0040  145.0450  160.3758 N.3     1  UNL1       -0.2724
     20 C         139.9520  145.7608  161.1700 C.3     1  UNL1        0.0758
     21 C         139.7542  145.4325  162.6203 C.3     1  UNL1        0.0609
     22 C         140.6084  144.3884  163.2762 C.3     1  UNL1        0.1687
     23 C         141.6604  143.6726  162.4819 C.3     1  UNL1        0.0609
     24 C         141.8582  144.0009  161.0317 C.3     1  UNL1        0.0758
     25 O         140.4105  144.0601  164.7264 O.3     1  UNL1       -0.4790
     26 C         139.8087  142.7444  165.1222 C.ar    1  UNL1        0.1393
     27 C         138.7440  142.1200  164.2699 C.ar    1  UNL1        0.0378
     28 C         138.1422  140.8043  164.6657 C.ar    1  UNL1        0.0154
     29 C         138.6051  140.1130  165.9139 C.ar    1  UNL1        0.0684
     30 CL        138.0032  138.7973  166.3097 Cl      1  UNL1       -0.0814
     31 C         139.6698  140.7374  166.7662 C.ar    1  UNL1        0.0712
     32 CL        140.1327  140.0462  168.0143 Cl      1  UNL1       -0.0813
     33 C         140.2716  142.0532  166.3704 C.ar    1  UNL1        0.0491
@<TRIPOS>UNITY_ATOM_ATTR
15 1
charge -1
@<TRIPOS>BOND
     1    15    16   ar
     2    16    17   ar
     3    16    14    1
     4    14    13    1
     5    13     7    1
     6     7     8   ar
     7     8     9   ar
     8     9    10   ar
     9    10    11   ar
    10    11     1    1
    11     1     2    1
    12     2     3    1
    13     3     4    1
    14     4    18    1
    15    18    19    1
    16    19    20    1
    17    20    21    1
    18    21    22    1
    19    22    25    1
    20    25    26    1
    21    26    27   ar
    22    27    28   ar
    23    28    29   ar
    24    29    30    1
    25    29    31   ar
    26    31    32    1
    27    31    33   ar
    28    22    23    1
    29    23    24    1
    30     4     5    1
    31     5     6    1
    32    11    12   ar
    33    12     7   ar
    34     6     1    1
    35    24    19    1
    36    33    26   ar
@<TRIPOS>MOLECULE
*****
 33 36 0 0 0
SMALL
GASTEIGER

@<TRIPOS>ATOM
      1 N         139.9904  139.6918  162.3021 N.pl3   1  UNL1       -0.3074
      2 C         140.9484  140.6817  161.7086 C.3     1  UNL1        0.0908
      3 C         141.1302  140.7505  160.2212 C.3     1  UNL1        0.0229
      4 C         140.3539  139.8294  159.3274 C.3     1  UNL1        0.0194
      5 C         139.3958  138.8396  159.9209 C.3     1  UNL1        0.0229
      6 C         139.2140  138.7708  161.4083 C.3     1  UNL1        0.0908
      7 C         140.8231  139.4349  166.1739 C.ar    1  UNL1        0.1403
      8 C         139.4451  139.4853  166.7642 C.ar    1  UNL1        0.0370
      9 C         138.2488  139.6046  165.8671 C.ar    1  UNL1        0.0044
     10 C         138.4306  139.6734  164.3798 C.ar    1  UNL1        0.0147
     11 C         139.8086  139.6230  163.7895 C.ar    1  UNL1        0.0509
     12 C         141.0049  139.5038  164.6866 C.ar    1  UNL1        0.0514
     13 O         142.0194  139.3157  167.0709 O.3     1  UNL1       -0.4693
     14 C         142.1338  140.1849  168.2880 C.3     1  UNL1        0.2469
     15 O         143.2102  139.1492  170.4138 O.co2   1  UNL1       -0.5454
     16 C         141.9915  139.5839  169.6550 C.2     1  UNL1        0.0940
     17 O         140.6304  139.4175  170.2631 O.co2   1  UNL1       -0.5454
     18 C         140.5356  139.8982  157.8401 C.3     1  UNL1        0.0722
     19 N         141.0764  138.7140  157.0950 N.3     1  UNL1       -0.2724
     20 C         142.5575  138.5460  156.9272 C.3     1  UNL1        0.0758
     21 C         143.0982  137.3616  156.1821 C.3     1  UNL1        0.0609
     22 C         142.1579  136.3454  155.6050 C.3     1  UNL1        0.1687
     23 C         140.6768  136.5135  155.7728 C.3     1  UNL1        0.0609
     24 C         140.1361  137.6977  156.5179 C.3     1  UNL1        0.0758
     25 O         142.6987  135.1612  154.8599 O.3     1  UNL1       -0.4790
     26 C         142.9599  133.8743  155.5850 C.ar    1  UNL1        0.1393
     27 C         142.0585  132.6951  155.3684 C.ar    1  UNL1        0.0378
     28 C         142.3197  131.4083  156.0935 C.ar    1  UNL1        0.0154
     29 C         143.4822  131.3006  157.0352 C.ar    1  UNL1        0.0684
     30 CL        143.7434  130.0137  157.7603 Cl      1  UNL1       -0.0814
     31 C         144.3837  132.4799  157.2519 C.ar    1  UNL1        0.0712
     32 CL        145.5462  132.3722  158.1936 Cl      1  UNL1       -0.0813
     33 C         144.1225  133.7667  156.5268 C.ar    1  UNL1        0.0491
@<TRIPOS>UNITY_ATOM_ATTR
15 1
charge -1
@<TRIPOS>BOND
     1    15    16   ar
     2    16    17   ar
     3    16    14    1
     4    14    13    1
     5    13     7    1
     6     7     8   ar
     7     8     9   ar
     8     9    10   ar
     9    10    11   ar
    10    11     1    1
    11     1     2    1
    12     2     3    1
    13     3     4    1
    14     4    18    1
    15    18    19    1
    16    19    20    1
    17    20    21    1
    18    21    22    1
    19    22    25    1
    20    25    26    1
    21    26    27   ar
    22    27    28   ar
    23    28    29   ar
    24    29    30    1
    25    29    31   ar
    26    31    32    1
    27    31    33   ar
    28    22    23    1
    29    23    24    1
    30     4     5    1
    31     5     6    1
    32    11    12   ar
    33    12     7   ar
    34     6     1    1
    35    24    19    1
    36    33    26   ar
