@<TRIPOS>MOLECULE
*****
 36 38 0 0 0
SMALL
GASTEIGER

@<TRIPOS>ATOM
      1 N         139.3074  139.4443  160.8139 N.am    1  UNL1       -0.2991
      2 C         138.6846  140.1109  159.6232 C.2     1  UNL1        0.2408
      3 O         137.2397  139.8711  159.2998 O.2     1  UNL1       -0.2733
      4 H         140.2558  139.6017  161.0261 H       1  UNL1        0.1498
      5 C         139.5069  141.0174  158.7558 C.3     1  UNL1        0.1518
      6 C         139.9256  140.7435  157.3417 C.3     1  UNL1        0.0310
      7 C         140.7323  141.9137  156.8622 C.3     1  UNL1        0.0237
      8 C         140.8121  142.9109  157.9800 C.3     1  UNL1        0.0939
      9 N         140.0548  142.3569  159.1503 N.am    1  UNL1       -0.2719
     10 C         139.8767  143.0251  160.4813 C.2     1  UNL1        0.2400
     11 O         139.0890  142.3457  161.5621 O.2     1  UNL1       -0.2734
     12 C         140.4862  144.3726  160.7317 C.3     1  UNL1        0.1285
     13 N         139.9841  145.5732  159.9855 N.3     1  UNL1       -0.3150
     14 H         140.5073  146.3985  160.2779 H       1  UNL1        0.1192
     15 H         138.9936  145.7093  160.1875 H       1  UNL1        0.1192
     16 C         141.5976  144.5197  161.7282 C.3     1  UNL1        0.0231
     17 C         142.9272  143.8753  161.4693 C.3     1  UNL1        0.0018
     18 C         144.0386  144.0224  162.4658 C.3     1  UNL1        0.0001
     19 C         143.8206  144.8139  163.7211 C.3     1  UNL1        0.0000
     20 C         142.4910  145.4584  163.9800 C.3     1  UNL1        0.0001
     21 C         141.3795  145.3112  162.9835 C.3     1  UNL1        0.0018
     22 C         138.4852  138.5378  161.6812 C.3     1  UNL1        0.1164
     23 C         138.5607  139.0259  166.1540 C.ar    1  UNL1        0.1389
     24 C         139.0202  137.7407  165.5320 C.ar    1  UNL1        0.0366
     25 C         138.9950  137.5780  164.0410 C.ar    1  UNL1        0.0005
     26 C         138.5104  138.7005  163.1721 C.ar    1  UNL1       -0.0024
     27 C         138.0509  139.9858  163.7942 C.ar    1  UNL1        0.0005
     28 C         138.0760  140.1484  165.2851 C.ar    1  UNL1        0.0366
     29 O         138.5858  139.1886  167.6450 O.3     1  UNL1       -0.4736
     30 C         139.5920  140.0998  168.2831 C.3     1  UNL1        0.2017
     31 C         141.9953  139.6004  167.4315 C.3     1  UNL1        0.0041
     32 C         140.8134  140.5199  167.5204 C.3     1  UNL1        0.0456
     33 C         140.8530  141.8594  166.8466 C.3     1  UNL1        0.0041
     34 C         139.3769  140.5909  169.6841 C.2     1  UNL1        0.0900
     35 O         139.5790  142.0410  170.0098 O.co2   1  UNL1       -0.5455
     36 O         138.9596  139.6318  170.7592 O.co2   1  UNL1       -0.5455
@<TRIPOS>UNITY_ATOM_ATTR
35 1
charge -1
@<TRIPOS>BOND
     1    31    32    1
     2    32    33    1
     3    32    30    1
     4    30    29    1
     5    29    23    1
     6    23    24   ar
     7    24    25   ar
     8    25    26   ar
     9    26    22    1
    10    22     1    1
    11     1     2   am
    12     2     3    2
    13     5     2    1
    14     5     6    1
    15     6     7    1
    16     7     8    1
    17     8     9    1
    18     9    10   am
    19    10    11    2
    20    10    12    1
    21    12    13    1
    22    12    16    1
    23    16    17    1
    24    17    18    1
    25    18    19    1
    26    19    20    1
    27    20    21    1
    28    26    27   ar
    29    27    28   ar
    30    30    34    1
    31    34    35   ar
    32    34    36   ar
    33    28    23   ar
    34     9     5    1
    35    21    16    1
    36     1     4    1
    37    13    14    1
    38    13    15    1
@<TRIPOS>MOLECULE
*****
 36 38 0 0 0
SMALL
GASTEIGER

@<TRIPOS>ATOM
      1 N         139.5384  139.0309  160.6532 N.am    1  UNL1       -0.2991
      2 C         140.9691  138.5808  160.6347 C.2     1  UNL1        0.2408
      3 O         141.3996  137.4154  161.4752 O.2     1  UNL1       -0.2733
      4 H         139.2558  139.7958  160.1015 H       1  UNL1        0.1498
      5 C         141.9694  139.2961  159.7757 C.3     1  UNL1        0.1518
      6 C         142.5771  138.7728  158.5080 C.3     1  UNL1        0.0310
      7 C         143.5208  139.8135  157.9823 C.3     1  UNL1        0.0237
      8 C         143.4964  140.9799  158.9251 C.3     1  UNL1        0.0939
      9 N         142.5375  140.6601  160.0334 N.am    1  UNL1       -0.2719
     10 C         142.2053  141.5485  161.1955 C.2     1  UNL1        0.2400
     11 O         141.2217  141.0913  162.2318 O.2     1  UNL1       -0.2734
     12 C         142.8563  142.8939  161.3214 C.3     1  UNL1        0.1285
     13 N         142.9397  143.8012  160.1297 N.3     1  UNL1       -0.3150
     14 H         143.4097  144.6670  160.3938 H       1  UNL1        0.1192
     15 H         141.9990  144.0128  159.7970 H       1  UNL1        0.1192
     16 C         143.4241  143.3322  162.6388 C.3     1  UNL1        0.0231
     17 C         143.2299  144.7440  163.1067 C.3     1  UNL1        0.0018
     18 C         143.7976  145.1823  164.4241 C.3     1  UNL1        0.0001
     19 C         144.5595  144.2088  165.2736 C.3     1  UNL1        0.0000
     20 C         144.7537  142.7969  164.8057 C.3     1  UNL1        0.0001
     21 C         144.1859  142.3586  163.4883 C.3     1  UNL1        0.0018
     22 C         138.5381  138.3157  161.5122 C.3     1  UNL1        0.1164
     23 C         138.4377  139.0650  165.9482 C.ar    1  UNL1        0.1389
     24 C         138.8492  137.7213  165.4237 C.ar    1  UNL1        0.0366
     25 C         138.8826  137.4716  163.9450 C.ar    1  UNL1        0.0005
     26 C         138.5046  138.5655  162.9908 C.ar    1  UNL1       -0.0024
     27 C         138.0932  139.9092  163.5154 C.ar    1  UNL1        0.0005
     28 C         138.0597  140.1589  164.9941 C.ar    1  UNL1        0.0366
     29 O         138.4043  139.3148  167.4269 O.3     1  UNL1       -0.4736
     30 C         139.5287  140.0553  168.0881 C.3     1  UNL1        0.2017
     31 C         140.7622  141.9135  166.7555 C.3     1  UNL1        0.0041
     32 C         140.7070  140.5085  167.2780 C.3     1  UNL1        0.0456
     33 C         141.8302  139.5568  166.9905 C.3     1  UNL1        0.0041
     34 C         139.4749  140.3427  169.5594 C.2     1  UNL1        0.0900
     35 O         138.2639  139.9554  170.3553 O.co2   1  UNL1       -0.5455
     36 O         140.6320  141.0172  170.2346 O.co2   1  UNL1       -0.5455
@<TRIPOS>UNITY_ATOM_ATTR
35 1
charge -1
@<TRIPOS>BOND
     1    31    32    1
     2    32    33    1
     3    32    30    1
     4    30    29    1
     5    29    23    1
     6    23    24   ar
     7    24    25   ar
     8    25    26   ar
     9    26    22    1
    10    22     1    1
    11     1     2   am
    12     2     3    2
    13     5     2    1
    14     5     6    1
    15     6     7    1
    16     7     8    1
    17     8     9    1
    18     9    10   am
    19    10    11    2
    20    10    12    1
    21    12    13    1
    22    12    16    1
    23    16    17    1
    24    17    18    1
    25    18    19    1
    26    19    20    1
    27    20    21    1
    28    26    27   ar
    29    27    28   ar
    30    30    34    1
    31    34    35   ar
    32    34    36   ar
    33    28    23   ar
    34     9     5    1
    35    21    16    1
    36     1     4    1
    37    13    14    1
    38    13    15    1
@<TRIPOS>MOLECULE
*****
 36 38 0 0 0
SMALL
GASTEIGER

@<TRIPOS>ATOM
      1 N         142.0684  139.3388  160.7132 N.am    1  UNL1       -0.2991
      2 C         142.7446  140.0554  159.5822 C.2     1  UNL1        0.2408
      3 O         144.1520  139.7005  159.2041 O.2     1  UNL1       -0.2733
      4 H         141.1446  139.5717  160.9613 H       1  UNL1        0.1498
      5 C         142.0132  141.1271  158.8292 C.3     1  UNL1        0.1518
      6 C         141.6625  141.0974  157.3711 C.3     1  UNL1        0.0310
      7 C         140.9367  142.3684  157.0429 C.3     1  UNL1        0.0237
      8 C         140.8389  143.1837  158.2983 C.3     1  UNL1        0.0939
      9 N         141.5042  142.4164  159.4022 N.am    1  UNL1       -0.2719
     10 C         141.6371  142.8607  160.8288 C.2     1  UNL1        0.2400
     11 O         142.3322  141.9819  161.8262 O.2     1  UNL1       -0.2734
     12 C         141.0751  144.1835  161.2579 C.3     1  UNL1        0.1285
     13 N         141.5211  145.4440  160.5779 N.3     1  UNL1       -0.3150
     14 H         141.0410  146.2424  160.9931 H       1  UNL1        0.1192
     15 H         141.2970  145.3918  159.5841 H       1  UNL1        0.1192
     16 C         140.0672  144.2460  162.3671 C.3     1  UNL1        0.0231
     17 C         140.4790  144.7217  163.7287 C.3     1  UNL1        0.0018
     18 C         139.4711  144.7842  164.8379 C.3     1  UNL1        0.0001
     19 C         138.0515  144.3710  164.5854 C.3     1  UNL1        0.0000
     20 C         137.6397  143.8953  163.2237 C.3     1  UNL1        0.0001
     21 C         138.6476  143.8328  162.1146 C.3     1  UNL1        0.0018
     22 C         142.7996  138.2672  161.4661 C.3     1  UNL1        0.1164
     23 C         143.2469  138.5621  165.9341 C.ar    1  UNL1        0.1389
     24 C         142.0409  137.8936  165.3435 C.ar    1  UNL1        0.0366
     25 C         141.8918  137.7953  163.8542 C.ar    1  UNL1        0.0005
     26 C         142.9487  138.3655  162.9554 C.ar    1  UNL1       -0.0024
     27 C         144.1547  139.0339  163.5459 C.ar    1  UNL1        0.0005
     28 C         144.3037  139.1322  165.0353 C.ar    1  UNL1        0.0366
     29 O         143.3959  138.6604  167.4234 O.3     1  UNL1       -0.4736
     30 C         142.5984  139.6720  168.1918 C.3     1  UNL1        0.2017
     31 C         140.6792  140.9581  167.0032 C.3     1  UNL1        0.0041
     32 C         142.0917  140.9058  167.5056 C.3     1  UNL1        0.0456
     33 C         142.9973  142.0873  167.3217 C.3     1  UNL1        0.0041
     34 C         142.3077  139.4499  169.6466 C.2     1  UNL1        0.0900
     35 O         140.8891  139.3208  170.1166 O.co2   1  UNL1       -0.5455
     36 O         143.4354  139.3569  170.6311 O.co2   1  UNL1       -0.5455
@<TRIPOS>UNITY_ATOM_ATTR
35 1
charge -1
@<TRIPOS>BOND
     1    31    32    1
     2    32    33    1
     3    32    30    1
     4    30    29    1
     5    29    23    1
     6    23    24   ar
     7    24    25   ar
     8    25    26   ar
     9    26    22    1
    10    22     1    1
    11     1     2   am
    12     2     3    2
    13     5     2    1
    14     5     6    1
    15     6     7    1
    16     7     8    1
    17     8     9    1
    18     9    10   am
    19    10    11    2
    20    10    12    1
    21    12    13    1
    22    12    16    1
    23    16    17    1
    24    17    18    1
    25    18    19    1
    26    19    20    1
    27    20    21    1
    28    26    27   ar
    29    27    28   ar
    30    30    34    1
    31    34    35   ar
    32    34    36   ar
    33    28    23   ar
    34     9     5    1
    35    21    16    1
    36     1     4    1
    37    13    14    1
    38    13    15    1
@<TRIPOS>MOLECULE
*****
 36 38 0 0 0
SMALL
GASTEIGER

@<TRIPOS>ATOM
      1 N         139.2010  138.5502  162.6120 N.am    1  UNL1       -0.2991
      2 C         140.3894  138.2145  161.7605 C.2     1  UNL1        0.2408
      3 O         141.3294  137.1240  162.1812 O.2     1  UNL1       -0.2733
      4 H         138.5840  139.2660  162.3358 H       1  UNL1        0.1498
      5 C         140.6377  138.9694  160.4882 C.3     1  UNL1        0.1518
      6 C         140.3039  138.4979  159.1039 C.3     1  UNL1        0.0310
      7 C         140.7232  139.5653  158.1370 C.3     1  UNL1        0.0237
      8 C         141.3162  140.6964  158.9238 C.3     1  UNL1        0.0939
      9 N         141.2633  140.3281  160.3769 N.am    1  UNL1       -0.2719
     10 C         141.7506  141.1706  161.5183 C.2     1  UNL1        0.2400
     11 O         141.6310  140.6674  162.9264 O.2     1  UNL1       -0.2734
     12 C         142.3573  142.5162  161.2518 C.3     1  UNL1        0.1285
     13 N         143.7803  142.6187  160.7881 N.3     1  UNL1       -0.3150
     14 H         144.0253  143.6002  160.6573 H       1  UNL1        0.1192
     15 H         143.8865  142.1210  159.9042 H       1  UNL1        0.1192
     16 C         141.5414  143.7593  161.4488 C.3     1  UNL1        0.0231
     17 C         140.9483  144.4628  160.2642 C.3     1  UNL1        0.0018
     18 C         140.1324  145.7059  160.4612 C.3     1  UNL1        0.0001
     19 C         139.9095  146.2456  161.8428 C.3     1  UNL1        0.0000
     20 C         140.5026  145.5421  163.0276 C.3     1  UNL1        0.0001
     21 C         141.3185  144.2990  162.8305 C.3     1  UNL1        0.0018
     22 C         138.9527  137.7955  163.8842 C.3     1  UNL1        0.1164
     23 C         139.8252  139.7275  167.8536 C.ar    1  UNL1        0.1389
     24 C         140.9465  139.4230  166.9051 C.ar    1  UNL1        0.0366
     25 C         140.6557  138.7790  165.5819 C.ar    1  UNL1        0.0005
     26 C         139.2435  138.4395  165.2073 C.ar    1  UNL1       -0.0024
     27 C         138.1221  138.7440  166.1559 C.ar    1  UNL1        0.0005
     28 C         138.4130  139.3880  167.4790 C.ar    1  UNL1        0.0366
     29 O         140.1160  140.3715  169.1767 O.3     1  UNL1       -0.4736
     30 C         140.5535  141.8052  169.2330 C.3     1  UNL1        0.2017
     31 C         142.7283  142.4128  167.9481 C.3     1  UNL1        0.0041
     32 C         141.2318  142.4293  168.0497 C.3     1  UNL1        0.0456
     33 C         140.4137  143.0700  166.9679 C.3     1  UNL1        0.0041
     34 C         140.3127  142.6147  170.4727 C.2     1  UNL1        0.0900
     35 O         140.5211  141.9974  171.8238 O.co2   1  UNL1       -0.5455
     36 O         139.8635  144.0415  170.3612 O.co2   1  UNL1       -0.5455
@<TRIPOS>UNITY_ATOM_ATTR
35 1
charge -1
@<TRIPOS>BOND
     1    31    32    1
     2    32    33    1
     3    32    30    1
     4    30    29    1
     5    29    23    1
     6    23    24   ar
     7    24    25   ar
     8    25    26   ar
     9    26    22    1
    10    22     1    1
    11     1     2   am
    12     2     3    2
    13     5     2    1
    14     5     6    1
    15     6     7    1
    16     7     8    1
    17     8     9    1
    18     9    10   am
    19    10    11    2
    20    10    12    1
    21    12    13    1
    22    12    16    1
    23    16    17    1
    24    17    18    1
    25    18    19    1
    26    19    20    1
    27    20    21    1
    28    26    27   ar
    29    27    28   ar
    30    30    34    1
    31    34    35   ar
    32    34    36   ar
    33    28    23   ar
    34     9     5    1
    35    21    16    1
    36     1     4    1
    37    13    14    1
    38    13    15    1
@<TRIPOS>MOLECULE
*****
 36 38 0 0 0
SMALL
GASTEIGER

@<TRIPOS>ATOM
      1 N         142.0513  139.1826  162.1010 N.am    1  UNL1       -0.2991
      2 C         140.8583  138.4823  161.5212 C.2     1  UNL1        0.2408
      3 O         140.1452  137.4306  162.3183 O.2     1  UNL1       -0.2733
      4 H         142.5194  139.8728  161.5778 H       1  UNL1        0.1498
      5 C         140.3783  138.8337  160.1441 C.3     1  UNL1        0.1518
      6 C         139.1299  139.5967  159.8135 C.3     1  UNL1        0.0310
      7 C         139.0425  139.7184  158.3211 C.3     1  UNL1        0.0237
      8 C         140.2370  139.0307  157.7292 C.3     1  UNL1        0.0939
      9 N         141.0626  138.4839  158.8559 N.am    1  UNL1       -0.2719
     10 C         142.3469  137.7213  158.7185 C.2     1  UNL1        0.2400
     11 O         143.0647  137.2345  159.9424 O.2     1  UNL1       -0.2734
     12 C         142.9134  137.4454  157.3573 C.3     1  UNL1        0.1285
     13 N         143.7689  138.4737  156.6785 N.3     1  UNL1       -0.3150
     14 H         144.0656  138.1219  155.7682 H       1  UNL1        0.1192
     15 H         144.5897  138.6659  157.2527 H       1  UNL1        0.1192
     16 C         142.6246  136.1412  156.6749 C.3     1  UNL1        0.0231
     17 C         141.4283  136.0122  155.7793 C.3     1  UNL1        0.0018
     18 C         141.1394  134.7080  155.0969 C.3     1  UNL1        0.0001
     19 C         142.0469  133.5329  155.3100 C.3     1  UNL1        0.0000
     20 C         143.2434  133.6619  156.2056 C.3     1  UNL1        0.0001
     21 C         143.5322  134.9661  156.8880 C.3     1  UNL1        0.0018
     22 C         142.5313  138.8312  163.4780 C.3     1  UNL1        0.1164
     23 C         141.2495  141.3097  167.0084 C.ar    1  UNL1        0.1389
     24 C         140.5589  140.0113  166.7132 C.ar    1  UNL1        0.0366
     25 C         140.9862  139.1851  165.5364 C.ar    1  UNL1        0.0005
     26 C         142.1040  139.6574  164.6548 C.ar    1  UNL1       -0.0024
     27 C         142.7946  140.9558  164.9499 C.ar    1  UNL1        0.0005
     28 C         142.3674  141.7820  166.1267 C.ar    1  UNL1        0.0366
     29 O         140.8222  142.1359  168.1852 O.3     1  UNL1       -0.4736
     30 C         141.2162  141.7248  169.5728 C.3     1  UNL1        0.2017
     31 C         142.9263  139.9194  170.3251 C.3     1  UNL1        0.0041
     32 C         142.6300  141.3146  169.8606 C.3     1  UNL1        0.0456
     33 C         143.7475  142.2995  169.6839 C.3     1  UNL1        0.0041
     34 C         140.1963  141.7239  170.6728 C.2     1  UNL1        0.0900
     35 O         138.7833  141.3108  170.3851 O.co2   1  UNL1       -0.5455
     36 O         140.5895  142.1361  172.0604 O.co2   1  UNL1       -0.5455
@<TRIPOS>UNITY_ATOM_ATTR
35 1
charge -1
@<TRIPOS>BOND
     1    31    32    1
     2    32    33    1
     3    32    30    1
     4    30    29    1
     5    29    23    1
     6    23    24   ar
     7    24    25   ar
     8    25    26   ar
     9    26    22    1
    10    22     1    1
    11     1     2   am
    12     2     3    2
    13     5     2    1
    14     5     6    1
    15     6     7    1
    16     7     8    1
    17     8     9    1
    18     9    10   am
    19    10    11    2
    20    10    12    1
    21    12    13    1
    22    12    16    1
    23    16    17    1
    24    17    18    1
    25    18    19    1
    26    19    20    1
    27    20    21    1
    28    26    27   ar
    29    27    28   ar
    30    30    34    1
    31    34    35   ar
    32    34    36   ar
    33    28    23   ar
    34     9     5    1
    35    21    16    1
    36     1     4    1
    37    13    14    1
    38    13    15    1
@<TRIPOS>MOLECULE
*****
 36 38 0 0 0
SMALL
GASTEIGER

@<TRIPOS>ATOM
      1 N         141.3416  143.7137  161.8239 N.am    1  UNL1       -0.2991
      2 C         139.9893  144.0017  161.2424 C.2     1  UNL1        0.2408
      3 O         139.0414  144.9134  161.9636 O.2     1  UNL1       -0.2733
      4 H         141.9637  143.1152  161.3506 H       1  UNL1        0.1498
      5 C         139.5848  143.3779  159.9395 C.3     1  UNL1        0.1518
      6 C         138.5572  142.3001  159.7594 C.3     1  UNL1        0.0310
      7 C         138.4742  141.9785  158.2967 C.3     1  UNL1        0.0237
      8 C         139.4506  142.8575  157.5727 C.3     1  UNL1        0.0939
      9 N         140.1370  143.7223  158.5881 N.am    1  UNL1       -0.2719
     10 C         141.1905  144.7510  158.3021 C.2     1  UNL1        0.2400
     11 O         141.7892  145.5439  159.4260 O.2     1  UNL1       -0.2734
     12 C         141.6455  144.9869  156.8924 C.3     1  UNL1        0.1285
     13 N         142.8283  144.2397  156.3512 N.3     1  UNL1       -0.3150
     14 H         142.9955  144.5215  155.3852 H       1  UNL1        0.1192
     15 H         142.6422  143.2374  156.3856 H       1  UNL1        0.1192
     16 C         140.9179  145.9698  156.0239 C.3     1  UNL1        0.0231
     17 C         141.3613  146.1915  154.6082 C.3     1  UNL1        0.0018
     18 C         140.6337  147.1745  153.7396 C.3     1  UNL1        0.0001
     19 C         139.4627  147.9356  154.2867 C.3     1  UNL1        0.0000
     20 C         139.0193  147.7139  155.7025 C.3     1  UNL1        0.0001
     21 C         139.7469  146.7310  156.5710 C.3     1  UNL1        0.0018
     22 C         141.7461  144.3374  163.1267 C.3     1  UNL1        0.1164
     23 C         140.9647  142.1752  166.9951 C.ar    1  UNL1        0.1389
     24 C         142.2673  141.9808  166.2771 C.ar    1  UNL1        0.0366
     25 C         142.5277  142.7016  164.9876 C.ar    1  UNL1        0.0005
     26 C         141.4856  143.6167  164.4162 C.ar    1  UNL1       -0.0024
     27 C         140.1831  143.8110  165.1342 C.ar    1  UNL1        0.0005
     28 C         139.9226  143.0903  166.4237 C.ar    1  UNL1        0.0366
     29 O         140.7043  141.4544  168.2846 O.3     1  UNL1       -0.4736
     30 C         141.3641  141.9180  169.5494 C.3     1  UNL1        0.2017
     31 C         143.8958  142.4428  169.8042 C.3     1  UNL1        0.0041
     32 C         142.7573  141.4688  169.8767 C.3     1  UNL1        0.0456
     33 C         143.0121  140.0457  170.2764 C.3     1  UNL1        0.0041
     34 C         140.6306  142.8307  170.4870 C.2     1  UNL1        0.0900
     35 O         140.2938  142.3682  171.8736 O.co2   1  UNL1       -0.5455
     36 O         140.2340  144.2058  170.0380 O.co2   1  UNL1       -0.5455
@<TRIPOS>UNITY_ATOM_ATTR
35 1
charge -1
@<TRIPOS>BOND
     1    31    32    1
     2    32    33    1
     3    32    30    1
     4    30    29    1
     5    29    23    1
     6    23    24   ar
     7    24    25   ar
     8    25    26   ar
     9    26    22    1
    10    22     1    1
    11     1     2   am
    12     2     3    2
    13     5     2    1
    14     5     6    1
    15     6     7    1
    16     7     8    1
    17     8     9    1
    18     9    10   am
    19    10    11    2
    20    10    12    1
    21    12    13    1
    22    12    16    1
    23    16    17    1
    24    17    18    1
    25    18    19    1
    26    19    20    1
    27    20    21    1
    28    26    27   ar
    29    27    28   ar
    30    30    34    1
    31    34    35   ar
    32    34    36   ar
    33    28    23   ar
    34     9     5    1
    35    21    16    1
    36     1     4    1
    37    13    14    1
    38    13    15    1
@<TRIPOS>MOLECULE
*****
 36 38 0 0 0
SMALL
GASTEIGER

@<TRIPOS>ATOM
      1 N         139.7945  138.5858  160.7190 N.am    1  UNL1       -0.2991
      2 C         140.2041  139.8216  159.9740 C.2     1  UNL1        0.2408
      3 O         139.3178  141.0317  159.9837 O.2     1  UNL1       -0.2733
      4 H         140.3763  137.7916  160.7126 H       1  UNL1        0.1498
      5 C         141.5001  139.8473  159.2191 C.3     1  UNL1        0.1518
      6 C         142.7127  140.6548  159.5763 C.3     1  UNL1        0.0310
      7 C         143.7731  140.3766  158.5525 C.3     1  UNL1        0.0237
      8 C         143.2158  139.3971  157.5625 C.3     1  UNL1        0.0939
      9 N         141.8111  139.0700  157.9745 N.am    1  UNL1       -0.2719
     10 C         140.8807  138.1305  157.2661 C.2     1  UNL1        0.2400
     11 O         139.4971  137.9018  157.7987 O.2     1  UNL1       -0.2734
     12 C         141.3337  137.4198  156.0254 C.3     1  UNL1        0.1285
     13 N         141.2938  138.1234  154.7011 N.3     1  UNL1       -0.3150
     14 H         141.6349  137.4963  153.9725 H       1  UNL1        0.1192
     15 H         141.8851  138.9536  154.7393 H       1  UNL1        0.1192
     16 C         141.8266  136.0055  156.1086 C.3     1  UNL1        0.0231
     17 C         141.1943  134.9400  155.2631 C.3     1  UNL1        0.0018
     18 C         141.6872  133.5257  155.3464 C.3     1  UNL1        0.0001
     19 C         142.8123  133.1770  156.2750 C.3     1  UNL1        0.0000
     20 C         143.4446  134.2426  157.1206 C.3     1  UNL1        0.0001
     21 C         142.9517  135.6568  157.0373 C.3     1  UNL1        0.0018
     22 C         138.4986  138.5601  161.4739 C.3     1  UNL1        0.1164
     23 C         138.4839  139.1205  165.9388 C.ar    1  UNL1        0.1389
     24 C         138.0871  140.2535  165.0394 C.ar    1  UNL1        0.0366
     25 C         138.0920  140.0667  163.5511 C.ar    1  UNL1        0.0005
     26 C         138.4937  138.7469  162.9622 C.ar    1  UNL1       -0.0024
     27 C         138.8904  137.6140  163.8616 C.ar    1  UNL1        0.0005
     28 C         138.8855  137.8008  165.3499 C.ar    1  UNL1        0.0366
     29 O         138.4790  139.3073  167.4271 O.3     1  UNL1       -0.4736
     30 C         139.6141  140.0235  168.0969 C.3     1  UNL1        0.2017
     31 C         140.7049  142.0558  166.9009 C.3     1  UNL1        0.0041
     32 C         140.7258  140.6027  167.2731 C.3     1  UNL1        0.0456
     33 C         141.8583  139.7291  166.8214 C.3     1  UNL1        0.0041
     34 C         139.6376  140.1604  169.5905 C.2     1  UNL1        0.0900
     35 O         138.6386  141.0428  170.2785 O.co2   1  UNL1       -0.5455
     36 O         140.6600  139.4149  170.3960 O.co2   1  UNL1       -0.5455
@<TRIPOS>UNITY_ATOM_ATTR
35 1
charge -1
@<TRIPOS>BOND
     1    31    32    1
     2    32    33    1
     3    32    30    1
     4    30    29    1
     5    29    23    1
     6    23    24   ar
     7    24    25   ar
     8    25    26   ar
     9    26    22    1
    10    22     1    1
    11     1     2   am
    12     2     3    2
    13     5     2    1
    14     5     6    1
    15     6     7    1
    16     7     8    1
    17     8     9    1
    18     9    10   am
    19    10    11    2
    20    10    12    1
    21    12    13    1
    22    12    16    1
    23    16    17    1
    24    17    18    1
    25    18    19    1
    26    19    20    1
    27    20    21    1
    28    26    27   ar
    29    27    28   ar
    30    30    34    1
    31    34    35   ar
    32    34    36   ar
    33    28    23   ar
    34     9     5    1
    35    21    16    1
    36     1     4    1
    37    13    14    1
    38    13    15    1
@<TRIPOS>MOLECULE
*****
 36 38 0 0 0
SMALL
GASTEIGER

@<TRIPOS>ATOM
      1 N         139.6051  145.7936  160.7248 N.am    1  UNL1       -0.2991
      2 C         140.7977  145.2474  159.9972 C.2     1  UNL1        0.2408
      3 O         142.0308  144.8638  160.7602 O.2     1  UNL1       -0.2733
      4 H         138.7957  146.0455  160.2240 H       1  UNL1        0.1498
      5 C         140.7571  145.0849  158.5065 C.3     1  UNL1        0.1518
      6 C         141.5575  145.8721  157.5117 C.3     1  UNL1        0.0310
      7 C         141.2041  145.3805  156.1394 C.3     1  UNL1        0.0237
      8 C         140.1852  144.2894  156.2860 C.3     1  UNL1        0.0939
      9 N         139.9090  144.1068  157.7490 N.am    1  UNL1       -0.2719
     10 C         138.9525  143.1193  158.3491 C.2     1  UNL1        0.2400
     11 O         138.7803  143.0515  159.8377 O.2     1  UNL1       -0.2734
     12 C         138.1682  142.1998  157.4607 C.3     1  UNL1        0.1285
     13 N         136.9056  142.6821  156.8099 N.3     1  UNL1       -0.3150
     14 H         136.5061  141.9322  156.2456 H       1  UNL1        0.1192
     15 H         137.1150  143.4822  156.2129 H       1  UNL1        0.1192
     16 C         138.6462  140.7980  157.2231 C.3     1  UNL1        0.0231
     17 C         138.5870  140.2089  155.8449 C.3     1  UNL1        0.0018
     18 C         139.0650  138.8072  155.6073 C.3     1  UNL1        0.0001
     19 C         139.6022  137.9945  156.7478 C.3     1  UNL1        0.0000
     20 C         139.6615  138.5836  158.1261 C.3     1  UNL1        0.0001
     21 C         139.1834  139.9853  158.3637 C.3     1  UNL1        0.0018
     22 C         139.6456  145.9561  162.2154 C.3     1  UNL1        0.1164
     23 C         138.9900  142.3940  164.8858 C.ar    1  UNL1        0.1389
     24 C         140.3657  142.9710  164.7294 C.ar    1  UNL1        0.0366
     25 C         140.5842  144.1584  163.8393 C.ar    1  UNL1        0.0005
     26 C         139.4271  144.7687  163.1055 C.ar    1  UNL1       -0.0024
     27 C         138.0514  144.1917  163.2619 C.ar    1  UNL1        0.0005
     28 C         137.8329  143.0043  164.1520 C.ar    1  UNL1        0.0366
     29 O         138.7715  141.2066  165.7759 O.3     1  UNL1       -0.4736
     30 C         138.8010  139.8219  165.2000 C.3     1  UNL1        0.2017
     31 C         138.1054  139.5831  162.7081 C.3     1  UNL1        0.0041
     32 C         139.1729  139.6157  163.7615 C.3     1  UNL1        0.0456
     33 C         140.6122  139.4421  163.3764 C.3     1  UNL1        0.0041
     34 C         138.4587  138.6433  166.0625 C.2     1  UNL1        0.0900
     35 O         138.1000  138.8483  167.5045 O.co2   1  UNL1       -0.5455
     36 O         138.4750  137.2599  165.4830 O.co2   1  UNL1       -0.5455
@<TRIPOS>UNITY_ATOM_ATTR
35 1
charge -1
@<TRIPOS>BOND
     1    31    32    1
     2    32    33    1
     3    32    30    1
     4    30    29    1
     5    29    23    1
     6    23    24   ar
     7    24    25   ar
     8    25    26   ar
     9    26    22    1
    10    22     1    1
    11     1     2   am
    12     2     3    2
    13     5     2    1
    14     5     6    1
    15     6     7    1
    16     7     8    1
    17     8     9    1
    18     9    10   am
    19    10    11    2
    20    10    12    1
    21    12    13    1
    22    12    16    1
    23    16    17    1
    24    17    18    1
    25    18    19    1
    26    19    20    1
    27    20    21    1
    28    26    27   ar
    29    27    28   ar
    30    30    34    1
    31    34    35   ar
    32    34    36   ar
    33    28    23   ar
    34     9     5    1
    35    21    16    1
    36     1     4    1
    37    13    14    1
    38    13    15    1
@<TRIPOS>MOLECULE
*****
 36 38 0 0 0
SMALL
GASTEIGER

@<TRIPOS>ATOM
      1 N         140.3838  143.5495  161.9995 N.am    1  UNL1       -0.2991
      2 C         141.7499  144.0749  161.6710 C.2     1  UNL1        0.2408
      3 O         142.4860  144.9235  162.6648 O.2     1  UNL1       -0.2733
      4 H         139.9007  142.9925  161.3471 H       1  UNL1        0.1498
      5 C         142.3797  143.7516  160.3485 C.3     1  UNL1        0.1518
      6 C         143.5861  142.8861  160.1346 C.3     1  UNL1        0.0310
      7 C         143.8658  142.8366  158.6617 C.3     1  UNL1        0.0237
      8 C         142.8322  143.6714  157.9654 C.3     1  UNL1        0.0939
      9 N         141.9138  144.2369  159.0079 N.am    1  UNL1       -0.2719
     10 C         140.7363  145.1307  158.7542 C.2     1  UNL1        0.2400
     11 O         139.9053  145.6205  159.9030 O.2     1  UNL1       -0.2734
     12 C         140.3896  145.5348  157.3519 C.3     1  UNL1        0.1285
     13 N         141.1752  146.6131  156.6662 N.3     1  UNL1       -0.3150
     14 H         140.8059  146.7576  155.7264 H       1  UNL1        0.1192
     15 H         142.1548  146.3351  156.6075 H       1  UNL1        0.1192
     16 C         139.2574  144.8607  156.6352 C.3     1  UNL1        0.0231
     17 C         138.8172  143.4885  157.0515 C.3     1  UNL1        0.0018
     18 C         137.6850  142.8145  156.3348 C.3     1  UNL1        0.0001
     19 C         136.9930  143.5125  155.2019 C.3     1  UNL1        0.0000
     20 C         137.4331  144.8848  154.7855 C.3     1  UNL1        0.0001
     21 C         138.5653  145.5589  155.5022 C.3     1  UNL1        0.0018
     22 C         139.7540  143.8727  163.3219 C.3     1  UNL1        0.1164
     23 C         139.7434  140.8091  166.6179 C.ar    1  UNL1        0.1389
     24 C         140.2276  142.2024  166.8905 C.ar    1  UNL1        0.0366
     25 C         140.2312  143.2236  165.7918 C.ar    1  UNL1        0.0005
     26 C         139.7504  142.8515  164.4206 C.ar    1  UNL1       -0.0024
     27 C         139.2662  141.4583  164.1480 C.ar    1  UNL1        0.0005
     28 C         139.2627  140.4371  165.2467 C.ar    1  UNL1        0.0366
     29 O         139.7399  139.7879  167.7166 O.3     1  UNL1       -0.4736
     30 C         140.4936  140.0501  168.9867 C.3     1  UNL1        0.2017
     31 C         142.7062  139.2956  167.8530 C.3     1  UNL1        0.0041
     32 C         141.9876  139.9186  169.0130 C.3     1  UNL1        0.0456
     33 C         142.7629  140.4100  170.1993 C.3     1  UNL1        0.0041
     34 C         139.7533  140.4439  170.2305 C.2     1  UNL1        0.0900
     35 O         139.3667  141.8762  170.4514 O.co2   1  UNL1       -0.5455
     36 O         139.3997  139.4053  171.2534 O.co2   1  UNL1       -0.5455
@<TRIPOS>UNITY_ATOM_ATTR
35 1
charge -1
@<TRIPOS>BOND
     1    31    32    1
     2    32    33    1
     3    32    30    1
     4    30    29    1
     5    29    23    1
     6    23    24   ar
     7    24    25   ar
     8    25    26   ar
     9    26    22    1
    10    22     1    1
    11     1     2   am
    12     2     3    2
    13     5     2    1
    14     5     6    1
    15     6     7    1
    16     7     8    1
    17     8     9    1
    18     9    10   am
    19    10    11    2
    20    10    12    1
    21    12    13    1
    22    12    16    1
    23    16    17    1
    24    17    18    1
    25    18    19    1
    26    19    20    1
    27    20    21    1
    28    26    27   ar
    29    27    28   ar
    30    30    34    1
    31    34    35   ar
    32    34    36   ar
    33    28    23   ar
    34     9     5    1
    35    21    16    1
    36     1     4    1
    37    13    14    1
    38    13    15    1
