@<TRIPOS>MOLECULE
*****
 31 33 0 0 0
SMALL
GASTEIGER

@<TRIPOS>ATOM
      1 C         138.6831  141.1602  164.4913 C.ar    1  UNL1        0.0826
      2 C         139.2623  140.4602  163.2978 C.ar    1  UNL1        0.0548
      3 C         138.2551  140.5256  162.1881 C.ar    1  UNL1        0.1543
      4 N         137.0534  141.2661  162.6958 N.ar    1  UNL1       -0.1574
      5 N         137.3179  141.6583  164.1192 N.ar    1  UNL1       -0.2743
      6 H         136.7034  142.1553  164.7062 H       1  UNL1        0.1890
      7 C         139.4919  140.1601  166.7486 C.ar    1  UNL1        0.1430
      8 C         140.1604  140.3319  168.0803 C.ar    1  UNL1        0.0372
      9 C         140.6886  141.6758  168.4865 C.ar    1  UNL1        0.0062
     10 C         140.5483  142.8478  167.5610 C.ar    1  UNL1        0.0372
     11 C         139.8798  142.6760  166.2293 C.ar    1  UNL1        0.1428
     12 C         139.3516  141.3321  165.8231 C.ar    1  UNL1        0.0849
     13 C         137.6531  138.3299  166.8861 C.3     1  UNL1        0.2525
     14 O         138.9637  138.8162  166.3424 O.3     1  UNL1       -0.4713
     15 O         139.7394  143.8480  165.3036 O.3     1  UNL1       -0.4753
     16 C         140.7565  144.0782  164.2254 C.3     1  UNL1        0.2068
     17 C         140.3111  144.3256  162.8147 C.3     1  UNL1        0.0641
     18 C         139.0267  145.0541  162.5505 C.3     1  UNL1        0.0690
     19 N         137.7157  144.3401  162.6972 N.3     1  UNL1       -0.3210
     20 H         137.6458  143.6088  161.9896 H       1  UNL1        0.1189
     21 H         136.9513  145.0045  162.5762 H       1  UNL1        0.1189
     22 N         138.4206  139.9513  160.8123 N.pl3   1  UNL1       -0.2807
     23 H         138.6995  139.0138  160.7004 H       1  UNL1        0.1551
     24 C         138.1612  140.8055  159.6068 C.ar    1  UNL1        0.1527
     25 C         138.5695  142.2490  159.6086 C.ar    1  UNL1        0.1340
     26 N         138.3101  143.1032  158.4032 N.ar    1  UNL1       -0.2290
     27 C         137.6425  142.5140  157.1960 C.ar    1  UNL1        0.1683
     28 C         137.2343  141.0706  157.1943 C.ar    1  UNL1        0.1299
     29 N         137.4937  140.2164  158.3997 N.ar    1  UNL1       -0.2251
     30 C         137.3831  143.3682  155.9906 C.1     1  UNL1        0.1214
     31 N         137.1237  144.2223  154.7851 N.1     1  UNL1       -0.1892
@<TRIPOS>BOND
     1    13    14    1
     2    14     7    1
     3     7     8   ar
     4     8     9   ar
     5     9    10   ar
     6    10    11   ar
     7    11    15    1
     8    15    16    1
     9    16    17    1
    10    17    18    1
    11    18    19    1
    12    11    12   ar
    13    12     1    1
    14     1     2   ar
    15     2     3   ar
    16     3    22    1
    17    22    24    1
    18    24    25   ar
    19    25    26   ar
    20    26    27   ar
    21    27    30    1
    22    30    31    3
    23    27    28   ar
    24    28    29   ar
    25     3     4   ar
    26     4     5   ar
    27    12     7   ar
    28     5     1   ar
    29    29    24   ar
    30    19    20    1
    31    19    21    1
    32    22    23    1
    33     5     6    1
@<TRIPOS>MOLECULE
*****
 31 33 0 0 0
SMALL
GASTEIGER

@<TRIPOS>ATOM
      1 C         139.7109  142.9193  164.7011 C.ar    1  UNL1        0.0826
      2 C         140.8724  143.0763  163.7650 C.ar    1  UNL1        0.0548
      3 C         140.7946  144.4445  163.1551 C.ar    1  UNL1        0.1543
      4 N         139.5849  145.1331  163.7143 N.ar    1  UNL1       -0.1574
      5 N         138.9152  144.1905  164.6698 N.ar    1  UNL1       -0.2743
      6 H         138.0971  144.3739  165.1857 H       1  UNL1        0.1890
      7 C         140.1278  141.4655  166.8137 C.ar    1  UNL1        0.1430
      8 C         139.8166  140.2506  167.6366 C.ar    1  UNL1        0.0372
      9 C         138.7774  139.2747  167.1701 C.ar    1  UNL1        0.0062
     10 C         138.0494  139.5137  165.8806 C.ar    1  UNL1        0.0372
     11 C         138.3606  140.7285  165.0576 C.ar    1  UNL1        0.1428
     12 C         139.3998  141.7044  165.5242 C.ar    1  UNL1        0.0849
     13 C         141.4748  142.5671  168.7429 C.3     1  UNL1        0.2525
     14 O         141.1670  142.4414  167.2802 O.3     1  UNL1       -0.4713
     15 O         137.6325  140.9675  163.7680 O.3     1  UNL1       -0.4753
     16 C         138.1088  140.3126  162.5054 C.3     1  UNL1        0.2068
     17 C         138.8510  141.1150  161.4782 C.3     1  UNL1        0.0641
     18 C         138.3154  142.4438  161.0340 C.3     1  UNL1        0.0690
     19 N         137.5358  143.2961  161.9910 N.3     1  UNL1       -0.3210
     20 H         136.6601  142.8291  162.2264 H       1  UNL1        0.1189
     21 H         137.3348  144.1973  161.5576 H       1  UNL1        0.1189
     22 N         141.7573  145.0226  162.1606 N.pl3   1  UNL1       -0.2807
     23 H         141.9528  145.9874  162.1683 H       1  UNL1        0.1551
     24 C         142.4221  144.1306  161.1545 C.ar    1  UNL1        0.1527
     25 C         141.7374  143.8245  159.8553 C.ar    1  UNL1        0.1340
     26 N         142.4023  142.9325  158.8492 N.ar    1  UNL1       -0.2290
     27 C         143.7517  142.3467  159.1421 C.ar    1  UNL1        0.1683
     28 C         144.4363  142.6528  160.4411 C.ar    1  UNL1        0.1299
     29 N         143.7715  143.5447  161.4473 N.ar    1  UNL1       -0.2251
     30 C         144.4166  141.4547  158.1359 C.1     1  UNL1        0.1214
     31 N         145.0815  140.5627  157.1298 N.1     1  UNL1       -0.1892
@<TRIPOS>BOND
     1    13    14    1
     2    14     7    1
     3     7     8   ar
     4     8     9   ar
     5     9    10   ar
     6    10    11   ar
     7    11    15    1
     8    15    16    1
     9    16    17    1
    10    17    18    1
    11    18    19    1
    12    11    12   ar
    13    12     1    1
    14     1     2   ar
    15     2     3   ar
    16     3    22    1
    17    22    24    1
    18    24    25   ar
    19    25    26   ar
    20    26    27   ar
    21    27    30    1
    22    30    31    3
    23    27    28   ar
    24    28    29   ar
    25     3     4   ar
    26     4     5   ar
    27    12     7   ar
    28     5     1   ar
    29    29    24   ar
    30    19    20    1
    31    19    21    1
    32    22    23    1
    33     5     6    1
@<TRIPOS>MOLECULE
*****
 31 33 0 0 0
SMALL
GASTEIGER

@<TRIPOS>ATOM
      1 C         141.0765  144.3523  163.5393 C.ar    1  UNL1        0.0826
      2 C         141.7379  144.1995  162.2017 C.ar    1  UNL1        0.0548
      3 C         141.2000  145.2658  161.2942 C.ar    1  UNL1        0.1543
      4 N         140.2062  146.0777  162.0709 N.ar    1  UNL1       -0.1574
      5 N         140.1299  145.5131  163.4585 N.ar    1  UNL1       -0.2743
      6 H         139.5588  145.8459  164.1881 H       1  UNL1        0.1890
      7 C         142.7207  143.1322  165.1388 C.ar    1  UNL1        0.1430
      8 C         142.9633  142.2748  166.3454 C.ar    1  UNL1        0.0372
      9 C         141.8044  141.7800  167.1592 C.ar    1  UNL1        0.0062
     10 C         140.4029  142.1427  166.7664 C.ar    1  UNL1        0.0372
     11 C         140.1603  143.0001  165.5598 C.ar    1  UNL1        0.1428
     12 C         141.3192  143.4948  164.7460 C.ar    1  UNL1        0.0849
     13 C         144.8375  142.6488  163.7121 C.3     1  UNL1        0.2525
     14 O         143.8795  143.6269  164.3250 O.3     1  UNL1       -0.4713
     15 O         138.7588  143.3628  165.1669 O.3     1  UNL1       -0.4753
     16 C         137.8667  142.3347  164.5368 C.3     1  UNL1        0.2068
     17 C         138.0818  141.9290  163.1088 C.3     1  UNL1        0.0641
     18 C         137.9478  142.9439  162.0124 C.3     1  UNL1        0.0690
     19 N         137.6252  144.3703  162.3462 N.3     1  UNL1       -0.3210
     20 H         136.6870  144.4228  162.7430 H       1  UNL1        0.1189
     21 H         137.6679  144.9359  161.4984 H       1  UNL1        0.1189
     22 N         141.5878  145.4823  159.8614 N.pl3   1  UNL1       -0.2807
     23 H         142.4287  145.9458  159.6437 H       1  UNL1        0.1551
     24 C         140.6945  144.9928  158.7604 C.ar    1  UNL1        0.1527
     25 C         139.9417  143.7053  158.9219 C.ar    1  UNL1        0.1340
     26 N         139.0484  143.2157  157.8209 N.ar    1  UNL1       -0.2290
     27 C         138.9078  144.0135  156.5584 C.ar    1  UNL1        0.1683
     28 C         139.6605  145.3009  156.3969 C.ar    1  UNL1        0.1299
     29 N         140.5539  145.7904  157.4980 N.ar    1  UNL1       -0.2251
     30 C         138.0144  143.5239  155.4574 C.1     1  UNL1        0.1214
     31 N         137.1211  143.0344  154.3564 N.1     1  UNL1       -0.1892
@<TRIPOS>BOND
     1    13    14    1
     2    14     7    1
     3     7     8   ar
     4     8     9   ar
     5     9    10   ar
     6    10    11   ar
     7    11    15    1
     8    15    16    1
     9    16    17    1
    10    17    18    1
    11    18    19    1
    12    11    12   ar
    13    12     1    1
    14     1     2   ar
    15     2     3   ar
    16     3    22    1
    17    22    24    1
    18    24    25   ar
    19    25    26   ar
    20    26    27   ar
    21    27    30    1
    22    30    31    3
    23    27    28   ar
    24    28    29   ar
    25     3     4   ar
    26     4     5   ar
    27    12     7   ar
    28     5     1   ar
    29    29    24   ar
    30    19    20    1
    31    19    21    1
    32    22    23    1
    33     5     6    1
@<TRIPOS>MOLECULE
*****
 31 33 0 0 0
SMALL
GASTEIGER

@<TRIPOS>ATOM
      1 C         140.9346  142.1136  164.6721 C.ar    1  UNL1        0.0826
      2 C         141.3802  141.9125  163.2540 C.ar    1  UNL1        0.0548
      3 C         142.1718  143.1179  162.8415 C.ar    1  UNL1        0.1543
      4 N         142.2154  144.0642  164.0046 N.ar    1  UNL1       -0.1574
      5 N         141.4508  143.4434  165.1360 N.ar    1  UNL1       -0.2743
      6 H         141.3121  143.8393  166.0266 H       1  UNL1        0.1890
      7 C         140.5190  140.8291  166.8919 C.ar    1  UNL1        0.1430
      8 C         139.7008  139.8691  167.7035 C.ar    1  UNL1        0.0372
      9 C         138.4800  139.2334  167.1072 C.ar    1  UNL1        0.0062
     10 C         138.0774  139.5579  165.6991 C.ar    1  UNL1        0.0372
     11 C         138.8956  140.5179  164.8875 C.ar    1  UNL1        0.1428
     12 C         140.1164  141.1535  165.4838 C.ar    1  UNL1        0.0849
     13 C         141.6065  142.3900  168.6612 C.3     1  UNL1        0.2525
     14 O         141.7398  141.4647  167.4882 O.3     1  UNL1       -0.4713
     15 O         138.4930  140.8424  163.4793 O.3     1  UNL1       -0.4753
     16 C         137.4154  141.8535  163.2215 C.3     1  UNL1        0.2068
     17 C         137.7772  143.2867  162.9665 C.3     1  UNL1        0.0641
     18 C         138.0462  144.2087  164.1187 C.3     1  UNL1        0.0690
     19 N         139.1988  145.1669  164.0592 N.3     1  UNL1       -0.3210
     20 H         140.0749  144.6447  164.0503 H       1  UNL1        0.1189
     21 H         139.1754  145.7779  164.8756 H       1  UNL1        0.1189
     22 N         142.8081  143.3385  161.5011 N.pl3   1  UNL1       -0.2807
     23 H         143.7081  142.9834  161.3190 H       1  UNL1        0.1551
     24 C         142.0731  144.1001  160.4382 C.ar    1  UNL1        0.1527
     25 C         140.7478  144.7307  160.7481 C.ar    1  UNL1        0.1340
     26 N         140.0128  145.4923  159.6851 N.ar    1  UNL1       -0.2290
     27 C         140.6031  145.6232  158.3124 C.ar    1  UNL1        0.1683
     28 C         141.9284  144.9926  158.0026 C.ar    1  UNL1        0.1299
     29 N         142.6633  144.2311  159.0655 N.ar    1  UNL1       -0.2251
     30 C         139.8682  146.3848  157.2494 C.1     1  UNL1        0.1214
     31 N         139.1332  147.1463  156.1865 N.1     1  UNL1       -0.1892
@<TRIPOS>BOND
     1    13    14    1
     2    14     7    1
     3     7     8   ar
     4     8     9   ar
     5     9    10   ar
     6    10    11   ar
     7    11    15    1
     8    15    16    1
     9    16    17    1
    10    17    18    1
    11    18    19    1
    12    11    12   ar
    13    12     1    1
    14     1     2   ar
    15     2     3   ar
    16     3    22    1
    17    22    24    1
    18    24    25   ar
    19    25    26   ar
    20    26    27   ar
    21    27    30    1
    22    30    31    3
    23    27    28   ar
    24    28    29   ar
    25     3     4   ar
    26     4     5   ar
    27    12     7   ar
    28     5     1   ar
    29    29    24   ar
    30    19    20    1
    31    19    21    1
    32    22    23    1
    33     5     6    1
@<TRIPOS>MOLECULE
*****
 31 33 0 0 0
SMALL
GASTEIGER

@<TRIPOS>ATOM
      1 C         141.0526  141.5323  163.7050 C.ar    1  UNL1        0.0826
      2 C         141.6325  141.7381  162.3370 C.ar    1  UNL1        0.0548
      3 C         142.2219  143.1165  162.2859 C.ar    1  UNL1        0.1543
      4 N         142.0062  143.7627  163.6223 N.ar    1  UNL1       -0.1574
      5 N         141.2836  142.7836  164.4993 N.ar    1  UNL1       -0.2743
      6 H         141.0090  142.9355  165.4325 H       1  UNL1        0.1890
      7 C         141.1091  138.9931  164.2520 C.ar    1  UNL1        0.1430
      8 C         140.4193  137.7537  164.7400 C.ar    1  UNL1        0.0372
      9 C         138.9832  137.8142  165.1689 C.ar    1  UNL1        0.0062
     10 C         138.2369  139.1140  165.1099 C.ar    1  UNL1        0.0372
     11 C         138.9267  140.3533  164.6219 C.ar    1  UNL1        0.1428
     12 C         140.3628  140.2929  164.1930 C.ar    1  UNL1        0.0849
     13 C         142.9222  138.2093  162.5642 C.3     1  UNL1        0.2525
     14 O         142.5452  138.9326  163.8231 O.3     1  UNL1       -0.4713
     15 O         138.1804  141.6532  164.5628 O.3     1  UNL1       -0.4753
     16 C         137.3926  142.0107  163.3374 C.3     1  UNL1        0.2068
     17 C         137.8439  143.1393  162.4585 C.3     1  UNL1        0.0641
     18 C         138.0512  144.5062  163.0402 C.3     1  UNL1        0.0690
     19 N         139.0650  144.7133  164.1263 N.3     1  UNL1       -0.3210
     20 H         138.7711  144.2134  164.9654 H       1  UNL1        0.1189
     21 H         139.1428  145.7090  164.3334 H       1  UNL1        0.1189
     22 N         142.9067  143.7394  161.1056 N.pl3   1  UNL1       -0.2807
     23 H         143.8878  143.7063  161.0319 H       1  UNL1        0.1551
     24 C         142.0965  144.4126  160.0377 C.ar    1  UNL1        0.1527
     25 C         140.7667  145.0190  160.3754 C.ar    1  UNL1        0.1340
     26 N         139.9566  145.6923  159.3075 N.ar    1  UNL1       -0.2290
     27 C         140.4762  145.7591  157.9019 C.ar    1  UNL1        0.1683
     28 C         141.8059  145.1527  157.5643 C.ar    1  UNL1        0.1299
     29 N         142.6161  144.4795  158.6322 N.ar    1  UNL1       -0.2251
     30 C         139.6661  146.4323  156.8340 C.1     1  UNL1        0.1214
     31 N         138.8560  147.1055  155.7661 N.1     1  UNL1       -0.1892
@<TRIPOS>BOND
     1    13    14    1
     2    14     7    1
     3     7     8   ar
     4     8     9   ar
     5     9    10   ar
     6    10    11   ar
     7    11    15    1
     8    15    16    1
     9    16    17    1
    10    17    18    1
    11    18    19    1
    12    11    12   ar
    13    12     1    1
    14     1     2   ar
    15     2     3   ar
    16     3    22    1
    17    22    24    1
    18    24    25   ar
    19    25    26   ar
    20    26    27   ar
    21    27    30    1
    22    30    31    3
    23    27    28   ar
    24    28    29   ar
    25     3     4   ar
    26     4     5   ar
    27    12     7   ar
    28     5     1   ar
    29    29    24   ar
    30    19    20    1
    31    19    21    1
    32    22    23    1
    33     5     6    1
@<TRIPOS>MOLECULE
*****
 31 33 0 0 0
SMALL
GASTEIGER

@<TRIPOS>ATOM
      1 C         143.3453  142.5740  164.8780 C.ar    1  UNL1        0.0826
      2 C         142.3066  143.1122  163.9392 C.ar    1  UNL1        0.0548
      3 C         142.6657  144.5321  163.6153 C.ar    1  UNL1        0.1543
      4 N         143.9264  144.8715  164.3539 N.ar    1  UNL1       -0.1574
      5 N         144.3464  143.6613  165.1343 N.ar    1  UNL1       -0.2743
      6 H         145.1399  143.5926  165.7130 H       1  UNL1        0.1890
      7 C         144.1201  140.0974  164.7501 C.ar    1  UNL1        0.1430
      8 C         144.1522  138.7147  165.3307 C.ar    1  UNL1        0.0372
      9 C         143.4416  138.4258  166.6197 C.ar    1  UNL1        0.0062
     10 C         142.6989  139.5197  167.3281 C.ar    1  UNL1        0.0372
     11 C         142.6668  140.9023  166.7476 C.ar    1  UNL1        0.1428
     12 C         143.3774  141.1912  165.4585 C.ar    1  UNL1        0.0849
     13 C         144.1657  140.0774  162.1525 C.3     1  UNL1        0.2525
     14 O         144.8307  140.3862  163.4611 O.3     1  UNL1       -0.4713
     15 O         141.9241  141.9963  167.4560 O.3     1  UNL1       -0.4753
     16 C         142.4152  142.5001  168.7808 C.3     1  UNL1        0.2068
     17 C         141.4582  143.1436  169.7400 C.3     1  UNL1        0.0641
     18 C         140.4437  142.3071  170.4618 C.3     1  UNL1        0.0690
     19 N         140.5256  142.1481  171.9512 N.3     1  UNL1       -0.3210
     20 H         141.3731  141.6342  172.1921 H       1  UNL1        0.1189
     21 H         139.7100  141.6336  172.2835 H       1  UNL1        0.1189
     22 N         141.8987  145.4513  162.7115 N.pl3   1  UNL1       -0.2807
     23 H         141.8272  146.4088  162.9290 H       1  UNL1        0.1551
     24 C         141.2406  144.9116  161.4763 C.ar    1  UNL1        0.1527
     25 C         139.8121  144.4564  161.5255 C.ar    1  UNL1        0.1340
     26 N         139.1541  143.9168  160.2902 N.ar    1  UNL1       -0.2290
     27 C         139.9244  143.8323  159.0059 C.ar    1  UNL1        0.1683
     28 C         141.3528  144.2875  158.9568 C.ar    1  UNL1        0.1299
     29 N         142.0109  144.8272  160.1920 N.ar    1  UNL1       -0.2251
     30 C         139.2664  143.2927  157.7707 C.1     1  UNL1        0.1214
     31 N         138.6084  142.7530  156.5355 N.1     1  UNL1       -0.1892
@<TRIPOS>BOND
     1    13    14    1
     2    14     7    1
     3     7     8   ar
     4     8     9   ar
     5     9    10   ar
     6    10    11   ar
     7    11    15    1
     8    15    16    1
     9    16    17    1
    10    17    18    1
    11    18    19    1
    12    11    12   ar
    13    12     1    1
    14     1     2   ar
    15     2     3   ar
    16     3    22    1
    17    22    24    1
    18    24    25   ar
    19    25    26   ar
    20    26    27   ar
    21    27    30    1
    22    30    31    3
    23    27    28   ar
    24    28    29   ar
    25     3     4   ar
    26     4     5   ar
    27    12     7   ar
    28     5     1   ar
    29    29    24   ar
    30    19    20    1
    31    19    21    1
    32    22    23    1
    33     5     6    1
@<TRIPOS>MOLECULE
*****
 31 33 0 0 0
SMALL
GASTEIGER

@<TRIPOS>ATOM
      1 C         138.5124  141.0443  164.5074 C.ar    1  UNL1        0.0826
      2 C         138.8146  140.0140  163.4600 C.ar    1  UNL1        0.0548
      3 C         137.8549  140.2122  162.3244 C.ar    1  UNL1        0.1543
      4 N         136.9594  141.3649  162.6700 N.ar    1  UNL1       -0.1574
      5 N         137.3658  141.8792  164.0192 N.ar    1  UNL1       -0.2743
      6 H         136.9526  142.6324  164.4999 H       1  UNL1        0.1890
      7 C         139.3294  140.0569  166.7675 C.ar    1  UNL1        0.1430
      8 C         140.0476  140.2231  168.0738 C.ar    1  UNL1        0.0372
      9 C         140.6670  141.5430  168.4265 C.ar    1  UNL1        0.0062
     10 C         140.5681  142.6966  167.4729 C.ar    1  UNL1        0.0372
     11 C         139.8500  142.5303  166.1666 C.ar    1  UNL1        0.1428
     12 C         139.2306  141.2105  165.8139 C.ar    1  UNL1        0.0849
     13 C         137.4646  138.2818  167.1158 C.3     1  UNL1        0.2525
     14 O         138.7101  138.7370  166.4147 O.3     1  UNL1       -0.4713
     15 O         139.7511  143.6839  165.2129 O.3     1  UNL1       -0.4753
     16 C         140.7289  143.8082  164.0822 C.3     1  UNL1        0.2068
     17 C         140.2420  144.1393  162.7026 C.3     1  UNL1        0.0641
     18 C         139.0462  145.0267  162.5221 C.3     1  UNL1        0.0690
     19 N         137.6645  144.4644  162.6796 N.3     1  UNL1       -0.3210
     20 H         137.4870  143.7860  161.9389 H       1  UNL1        0.1189
     21 H         136.9813  145.2195  162.6200 H       1  UNL1        0.1189
     22 N         137.8001  139.4001  161.0643 N.pl3   1  UNL1       -0.2807
     23 H         136.9664  138.9429  160.8092 H       1  UNL1        0.1551
     24 C         139.0156  139.2848  160.1930 C.ar    1  UNL1        0.1527
     25 C         139.0187  139.9000  158.8248 C.ar    1  UNL1        0.1340
     26 N         140.2342  139.7847  157.9535 N.ar    1  UNL1       -0.2290
     27 C         141.4466  139.0542  158.4502 C.ar    1  UNL1        0.1683
     28 C         141.4434  138.4391  159.8182 C.ar    1  UNL1        0.1299
     29 N         140.2279  138.5544  160.6896 N.ar    1  UNL1       -0.2251
     30 C         142.6621  138.9389  157.5788 C.1     1  UNL1        0.1214
     31 N         143.8776  138.8236  156.7075 N.1     1  UNL1       -0.1892
@<TRIPOS>BOND
     1    13    14    1
     2    14     7    1
     3     7     8   ar
     4     8     9   ar
     5     9    10   ar
     6    10    11   ar
     7    11    15    1
     8    15    16    1
     9    16    17    1
    10    17    18    1
    11    18    19    1
    12    11    12   ar
    13    12     1    1
    14     1     2   ar
    15     2     3   ar
    16     3    22    1
    17    22    24    1
    18    24    25   ar
    19    25    26   ar
    20    26    27   ar
    21    27    30    1
    22    30    31    3
    23    27    28   ar
    24    28    29   ar
    25     3     4   ar
    26     4     5   ar
    27    12     7   ar
    28     5     1   ar
    29    29    24   ar
    30    19    20    1
    31    19    21    1
    32    22    23    1
    33     5     6    1
@<TRIPOS>MOLECULE
*****
 31 33 0 0 0
SMALL
GASTEIGER

@<TRIPOS>ATOM
      1 C         141.8128  139.3819  164.8548 C.ar    1  UNL1        0.0826
      2 C         142.1261  140.5125  163.9202 C.ar    1  UNL1        0.0548
      3 C         143.4723  140.2517  163.3121 C.ar    1  UNL1        0.1543
      4 N         143.9909  138.9598  163.8708 N.ar    1  UNL1       -0.1574
      5 N         142.9653  138.4223  164.8242 N.ar    1  UNL1       -0.2743
      6 H         143.0361  137.5864  165.3395 H       1  UNL1        0.1890
      7 C         140.4282  139.9829  166.9694 C.ar    1  UNL1        0.1430
      8 C         139.1813  139.8373  167.7903 C.ar    1  UNL1        0.0372
      9 C         138.0719  138.9452  167.3176 C.ar    1  UNL1        0.0062
     10 C         138.2096  138.1986  166.0239 C.ar    1  UNL1        0.0372
     11 C         139.4565  138.3442  165.2030 C.ar    1  UNL1        0.1428
     12 C         140.5658  139.2363  165.6758 C.ar    1  UNL1        0.0849
     13 C         142.5702  140.3477  168.3937 C.3     1  UNL1        0.2525
     14 O         141.5375  140.8750  167.4422 O.3     1  UNL1       -0.4713
     15 O         139.5941  137.5976  163.9092 O.3     1  UNL1       -0.4753
     16 C         138.9998  138.1598  162.6520 C.3     1  UNL1        0.2068
     17 C         139.8813  138.8298  161.6401 C.3     1  UNL1        0.0641
     18 C         141.1449  138.1610  161.1862 C.3     1  UNL1        0.0690
     19 N         141.8520  137.1988  162.0941 N.3     1  UNL1       -0.3210
     20 H         142.2067  137.6987  162.9094 H       1  UNL1        0.1189
     21 H         142.6299  136.7685  161.5940 H       1  UNL1        0.1189
     22 N         144.1763  141.1288  162.3195 N.pl3   1  UNL1       -0.2807
     23 H         145.1552  141.0805  162.2272 H       1  UNL1        0.1551
     24 C         143.3887  142.0795  161.4676 C.ar    1  UNL1        0.1527
     25 C         143.3239  143.5338  161.8299 C.ar    1  UNL1        0.1340
     26 N         142.5363  144.4845  160.9779 N.ar    1  UNL1       -0.2290
     27 C         141.8135  143.9811  159.7638 C.ar    1  UNL1        0.1683
     28 C         141.8783  142.5270  159.4016 C.ar    1  UNL1        0.1299
     29 N         142.6659  141.5762  160.2535 N.ar    1  UNL1       -0.2251
     30 C         141.0260  144.9318  158.9118 C.1     1  UNL1        0.1214
     31 N         140.2384  145.8826  158.0599 N.1     1  UNL1       -0.1892
@<TRIPOS>BOND
     1    13    14    1
     2    14     7    1
     3     7     8   ar
     4     8     9   ar
     5     9    10   ar
     6    10    11   ar
     7    11    15    1
     8    15    16    1
     9    16    17    1
    10    17    18    1
    11    18    19    1
    12    11    12   ar
    13    12     1    1
    14     1     2   ar
    15     2     3   ar
    16     3    22    1
    17    22    24    1
    18    24    25   ar
    19    25    26   ar
    20    26    27   ar
    21    27    30    1
    22    30    31    3
    23    27    28   ar
    24    28    29   ar
    25     3     4   ar
    26     4     5   ar
    27    12     7   ar
    28     5     1   ar
    29    29    24   ar
    30    19    20    1
    31    19    21    1
    32    22    23    1
    33     5     6    1
@<TRIPOS>MOLECULE
*****
 31 33 0 0 0
SMALL
GASTEIGER

@<TRIPOS>ATOM
      1 C         140.9565  141.9309  165.6153 C.ar    1  UNL1        0.0826
      2 C         140.5729  143.1465  164.8247 C.ar    1  UNL1        0.0548
      3 C         141.8334  143.8340  164.3906 C.ar    1  UNL1        0.1543
      4 N         142.9962  143.0433  164.9130 N.ar    1  UNL1       -0.1574
      5 N         142.4542  141.8671  165.6699 N.ar    1  UNL1       -0.2743
      6 H         142.9878  141.1748  166.1229 H       1  UNL1        0.1890
      7 C         139.9782  140.7851  167.7319 C.ar    1  UNL1        0.1430
      8 C         139.0306  139.8053  168.3580 C.ar    1  UNL1        0.0372
      9 C         138.1137  138.9915  167.4937 C.ar    1  UNL1        0.0062
     10 C         138.1444  139.1576  166.0032 C.ar    1  UNL1        0.0372
     11 C         139.0920  140.1374  165.3771 C.ar    1  UNL1        0.1428
     12 C         140.0089  140.9511  166.2415 C.ar    1  UNL1        0.0849
     13 C         140.3769  142.8180  169.2998 C.3     1  UNL1        0.2525
     14 O         140.8952  141.5988  168.5963 O.3     1  UNL1       -0.4713
     15 O         139.1227  140.3035  163.8866 O.3     1  UNL1       -0.4753
     16 C         138.3428  139.3675  163.0115 C.3     1  UNL1        0.2068
     17 C         138.9067  138.0222  162.6623 C.3     1  UNL1        0.0641
     18 C         140.3384  137.8976  162.2325 C.3     1  UNL1        0.0690
     19 N         141.2347  136.8918  162.8921 N.3     1  UNL1       -0.3210
     20 H         141.3716  137.1480  163.8699 H       1  UNL1        0.1189
     21 H         142.1363  136.8754  162.4154 H       1  UNL1        0.1189
     22 N         141.9166  145.0915  163.5770 N.pl3   1  UNL1       -0.2807
     23 H         142.2666  145.9177  163.9822 H       1  UNL1        0.1551
     24 C         141.4667  145.0901  162.1461 C.ar    1  UNL1        0.1527
     25 C         140.2083  145.8070  161.7549 C.ar    1  UNL1        0.1340
     26 N         139.7584  145.8056  160.3240 N.ar    1  UNL1       -0.2290
     27 C         140.5667  145.0875  159.2843 C.ar    1  UNL1        0.1683
     28 C         141.8249  144.3707  159.6755 C.ar    1  UNL1        0.1299
     29 N         142.2749  144.3721  161.1064 N.ar    1  UNL1       -0.2251
     30 C         140.1167  145.0862  157.8534 C.1     1  UNL1        0.1214
     31 N         139.6668  145.0848  156.4225 N.1     1  UNL1       -0.1892
@<TRIPOS>BOND
     1    13    14    1
     2    14     7    1
     3     7     8   ar
     4     8     9   ar
     5     9    10   ar
     6    10    11   ar
     7    11    15    1
     8    15    16    1
     9    16    17    1
    10    17    18    1
    11    18    19    1
    12    11    12   ar
    13    12     1    1
    14     1     2   ar
    15     2     3   ar
    16     3    22    1
    17    22    24    1
    18    24    25   ar
    19    25    26   ar
    20    26    27   ar
    21    27    30    1
    22    30    31    3
    23    27    28   ar
    24    28    29   ar
    25     3     4   ar
    26     4     5   ar
    27    12     7   ar
    28     5     1   ar
    29    29    24   ar
    30    19    20    1
    31    19    21    1
    32    22    23    1
    33     5     6    1
