@<TRIPOS>MOLECULE
*****
 38 41 0 0 0
SMALL
GASTEIGER

@<TRIPOS>ATOM
      1 C         140.0340  138.1782  162.2740 C.ar    1  UNL1        0.0504
      2 C         138.9943  138.1409  161.1935 C.ar    1  UNL1        0.0147
      3 C         139.3917  138.3525  159.7626 C.ar    1  UNL1        0.0014
      4 C         140.8288  138.6014  159.4123 C.ar    1  UNL1        0.0043
      5 C         141.2262  138.8130  157.9815 C.ar    1  UNL1        0.0208
      6 C         142.6633  139.0620  157.6312 C.ar    1  UNL1        0.1003
      7 N         143.7031  139.0993  158.7117 N.ar    1  UNL1       -0.2291
      8 C         143.3057  138.8877  160.1426 C.ar    1  UNL1        0.1321
      9 C         141.8685  138.6388  160.4929 C.ar    1  UNL1        0.0330
     10 C         141.4711  138.4272  161.9237 C.ar    1  UNL1        0.0174
     11 C         138.7288  138.9486  164.3842 C.2     1  UNL1        0.2261
     12 O         138.2184  140.1422  163.6327 O.2     1  UNL1       -0.2748
     13 N         139.6366  137.9666  163.7049 N.am    1  UNL1       -0.2839
     14 H         139.9717  137.1832  164.1981 H       1  UNL1        0.1549
     15 C         138.3314  138.7370  165.8150 C.3     1  UNL1        0.0854
     16 C         139.0346  139.4868  166.9075 C.3     1  UNL1        0.0096
     17 C         140.1790  140.3980  166.5753 C.3     1  UNL1        0.0005
     18 C         139.9776  141.8843  166.5722 C.3     1  UNL1        0.0005
     19 C         140.8231  142.7539  165.6895 C.3     1  UNL1        0.0096
     20 C         140.6261  142.7298  164.2026 C.3     1  UNL1        0.0871
     21 O         139.0720  144.8080  164.0760 O.2     1  UNL1       -0.2730
     22 C         139.4574  143.4424  163.5893 C.2     1  UNL1        0.2443
     23 N         138.6740  142.7896  162.4892 N.am    1  UNL1       -0.1970
     24 O         137.5052  143.5022  161.8759 O.3     1  UNL1       -0.2952
     25 H         138.9269  141.8934  162.1698 H       1  UNL1        0.1822
     26 H         137.3934  144.3663  162.3022 H       1  UNL1        0.2414
     27 N         144.3454  138.9250  161.2231 N.pl3   1  UNL1       -0.2979
     28 H         145.0237  138.2136  161.2784 H       1  UNL1        0.1536
     29 C         144.3517  140.0464  162.2195 C.ar    1  UNL1        0.0494
     30 C         144.6717  139.7692  163.6585 C.ar    1  UNL1        0.0146
     31 C         144.6780  140.8904  164.6549 C.ar    1  UNL1        0.0013
     32 C         144.3643  142.2888  164.2122 C.ar    1  UNL1        0.0001
     33 C         144.3707  143.4102  165.2085 C.ar    1  UNL1        0.0000
     34 C         144.0570  144.8086  164.7659 C.ar    1  UNL1        0.0000
     35 C         143.7370  145.0858  163.3268 C.ar    1  UNL1        0.0000
     36 C         143.7307  143.9645  162.3305 C.ar    1  UNL1        0.0000
     37 C         144.0444  142.5660  162.7732 C.ar    1  UNL1        0.0012
     38 C         144.0381  141.4448  161.7768 C.ar    1  UNL1        0.0146
@<TRIPOS>BOND
     1    21    22    2
     2    22    20    1
     3    20    19    1
     4    19    18    1
     5    18    17    1
     6    17    16    1
     7    16    15    1
     8    15    11    1
     9    11    12    2
    10    11    13   am
    11    13     1    1
    12     1     2   ar
    13     2     3   ar
    14     3     4   ar
    15     4     5   ar
    16     5     6   ar
    17     6     7   ar
    18     7     8   ar
    19     8    27    1
    20    27    29    1
    21    29    30   ar
    22    30    31   ar
    23    31    32   ar
    24    32    33   ar
    25    33    34   ar
    26    34    35   ar
    27    35    36   ar
    28    36    37   ar
    29    37    38   ar
    30     8     9   ar
    31     9    10   ar
    32    22    23   am
    33    23    24    1
    34    10     1   ar
    35     9     4   ar
    36    38    29   ar
    37    37    32   ar
    38    13    14    1
    39    27    28    1
    40    23    25    1
    41    24    26    1
@<TRIPOS>MOLECULE
*****
 38 41 0 0 0
SMALL
GASTEIGER

@<TRIPOS>ATOM
      1 C         141.3284  144.6428  161.5517 C.ar    1  UNL1        0.0504
      2 C         140.6235  145.0473  160.2910 C.ar    1  UNL1        0.0147
      3 C         141.1778  144.6400  158.9580 C.ar    1  UNL1        0.0014
      4 C         142.4370  143.8282  158.8857 C.ar    1  UNL1        0.0043
      5 C         142.9913  143.4208  157.5528 C.ar    1  UNL1        0.0208
      6 C         144.2506  142.6090  157.4805 C.ar    1  UNL1        0.1003
      7 N         144.9556  142.2045  158.7413 N.ar    1  UNL1       -0.2291
      8 C         144.4012  142.6118  160.0743 C.ar    1  UNL1        0.1321
      9 C         143.1419  143.4237  160.1465 C.ar    1  UNL1        0.0330
     10 C         142.5876  143.8310  161.4794 C.ar    1  UNL1        0.0174
     11 C         139.5671  144.3536  163.4396 C.2     1  UNL1        0.2261
     12 O         138.9144  143.2497  162.6615 O.2     1  UNL1       -0.2748
     13 N         140.7741  145.0502  162.8846 N.am    1  UNL1       -0.2839
     14 H         141.2025  145.7747  163.3953 H       1  UNL1        0.1549
     15 C         139.0128  144.7610  164.7725 C.3     1  UNL1        0.0854
     16 C         139.2912  143.9262  165.9874 C.3     1  UNL1        0.0096
     17 C         140.5565  143.1251  166.0730 C.3     1  UNL1        0.0005
     18 C         140.5824  141.7090  165.5791 C.3     1  UNL1        0.0005
     19 C         140.0586  140.6027  166.4461 C.3     1  UNL1        0.0096
     20 C         138.7641  139.9281  166.1006 C.3     1  UNL1        0.0871
     21 O         138.3989  139.0289  163.6906 O.2     1  UNL1       -0.2730
     22 C         138.1775  140.0882  164.7294 C.2     1  UNL1        0.2443
     23 N         137.3696  141.3075  164.3969 N.am    1  UNL1       -0.1970
     24 O         136.7830  141.4676  163.0257 O.3     1  UNL1       -0.2952
     25 H         137.2243  142.0027  165.0787 H       1  UNL1        0.1822
     26 H         137.0189  140.7001  162.4815 H       1  UNL1        0.2414
     27 N         145.1061  142.2074  161.3350 N.pl3   1  UNL1       -0.2979
     28 H         145.9990  142.5693  161.5375 H       1  UNL1        0.1536
     29 C         144.4507  141.2514  162.2872 C.ar    1  UNL1        0.0494
     30 C         144.7361  141.3428  163.7569 C.ar    1  UNL1        0.0146
     31 C         144.0807  140.3869  164.7091 C.ar    1  UNL1        0.0013
     32 C         143.1398  139.3396  164.1915 C.ar    1  UNL1        0.0001
     33 C         142.4844  138.3836  165.1436 C.ar    1  UNL1        0.0000
     34 C         141.5435  137.3363  164.6260 C.ar    1  UNL1        0.0000
     35 C         141.2581  137.2449  163.1563 C.ar    1  UNL1        0.0000
     36 C         141.9135  138.2008  162.2041 C.ar    1  UNL1        0.0000
     37 C         142.8544  139.2482  162.7217 C.ar    1  UNL1        0.0012
     38 C         143.5098  140.2041  161.7696 C.ar    1  UNL1        0.0146
@<TRIPOS>BOND
     1    21    22    2
     2    22    20    1
     3    20    19    1
     4    19    18    1
     5    18    17    1
     6    17    16    1
     7    16    15    1
     8    15    11    1
     9    11    12    2
    10    11    13   am
    11    13     1    1
    12     1     2   ar
    13     2     3   ar
    14     3     4   ar
    15     4     5   ar
    16     5     6   ar
    17     6     7   ar
    18     7     8   ar
    19     8    27    1
    20    27    29    1
    21    29    30   ar
    22    30    31   ar
    23    31    32   ar
    24    32    33   ar
    25    33    34   ar
    26    34    35   ar
    27    35    36   ar
    28    36    37   ar
    29    37    38   ar
    30     8     9   ar
    31     9    10   ar
    32    22    23   am
    33    23    24    1
    34    10     1   ar
    35     9     4   ar
    36    38    29   ar
    37    37    32   ar
    38    13    14    1
    39    27    28    1
    40    23    25    1
    41    24    26    1
@<TRIPOS>MOLECULE
*****
 38 41 0 0 0
SMALL
GASTEIGER

@<TRIPOS>ATOM
      1 C         139.8702  138.1832  162.9565 C.ar    1  UNL1        0.0504
      2 C         138.7877  138.0845  161.9228 C.ar    1  UNL1        0.0147
      3 C         139.1322  138.1702  160.4654 C.ar    1  UNL1        0.0014
      4 C         140.5592  138.3548  160.0417 C.ar    1  UNL1        0.0043
      5 C         140.9038  138.4406  158.5844 C.ar    1  UNL1        0.0208
      6 C         142.3308  138.6251  158.1606 C.ar    1  UNL1        0.1003
      7 N         143.4133  138.7239  159.1943 N.ar    1  UNL1       -0.2291
      8 C         143.0688  138.6381  160.6517 C.ar    1  UNL1        0.1321
      9 C         141.6417  138.4535  161.0754 C.ar    1  UNL1        0.0330
     10 C         141.2971  138.3677  162.5328 C.ar    1  UNL1        0.0174
     11 C         139.0343  139.3137  165.1412 C.2     1  UNL1        0.2261
     12 O         138.8874  140.6159  164.4112 O.2     1  UNL1       -0.2748
     13 N         139.5256  138.0974  164.4138 N.am    1  UNL1       -0.2839
     14 H         139.6220  137.2428  164.8930 H       1  UNL1        0.1549
     15 C         138.6897  139.2279  166.5986 C.3     1  UNL1        0.0854
     16 C         139.5021  139.9849  167.6071 C.3     1  UNL1        0.0096
     17 C         140.9420  140.2985  167.3274 C.3     1  UNL1        0.0005
     18 C         141.4347  141.7118  167.4259 C.3     1  UNL1        0.0005
     19 C         140.4835  142.8142  167.7865 C.3     1  UNL1        0.0096
     20 C         140.4722  143.3692  169.1800 C.3     1  UNL1        0.0871
     21 O         142.2839  142.8275  170.9617 O.2     1  UNL1       -0.2730
     22 C         140.9584  142.5311  170.3250 C.2     1  UNL1        0.2443
     23 N         140.1192  141.3965  170.8334 N.am    1  UNL1       -0.1970
     24 O         140.6054  140.5584  171.9784 O.3     1  UNL1       -0.2952
     25 H         139.2493  141.2020  170.4155 H       1  UNL1        0.1822
     26 H         141.4722  140.8814  172.2704 H       1  UNL1        0.2414
     27 N         144.1512  138.7368  161.6853 N.pl3   1  UNL1       -0.2979
     28 H         144.8366  138.0330  161.7491 H       1  UNL1        0.1536
     29 C         144.1894  139.9080  162.6219 C.ar    1  UNL1        0.0494
     30 C         144.4257  139.6893  164.0869 C.ar    1  UNL1        0.0146
     31 C         144.4639  140.8604  165.0234 C.ar    1  UNL1        0.0013
     32 C         144.2658  142.2501  164.4949 C.ar    1  UNL1        0.0001
     33 C         144.3040  143.4213  165.4314 C.ar    1  UNL1        0.0000
     34 C         144.1059  144.8110  164.9029 C.ar    1  UNL1        0.0000
     35 C         143.8696  145.0296  163.4378 C.ar    1  UNL1        0.0000
     36 C         143.8314  143.8586  162.5013 C.ar    1  UNL1        0.0000
     37 C         144.0295  142.4688  163.0298 C.ar    1  UNL1        0.0012
     38 C         143.9913  141.2977  162.0933 C.ar    1  UNL1        0.0146
@<TRIPOS>BOND
     1    21    22    2
     2    22    20    1
     3    20    19    1
     4    19    18    1
     5    18    17    1
     6    17    16    1
     7    16    15    1
     8    15    11    1
     9    11    12    2
    10    11    13   am
    11    13     1    1
    12     1     2   ar
    13     2     3   ar
    14     3     4   ar
    15     4     5   ar
    16     5     6   ar
    17     6     7   ar
    18     7     8   ar
    19     8    27    1
    20    27    29    1
    21    29    30   ar
    22    30    31   ar
    23    31    32   ar
    24    32    33   ar
    25    33    34   ar
    26    34    35   ar
    27    35    36   ar
    28    36    37   ar
    29    37    38   ar
    30     8     9   ar
    31     9    10   ar
    32    22    23   am
    33    23    24    1
    34    10     1   ar
    35     9     4   ar
    36    38    29   ar
    37    37    32   ar
    38    13    14    1
    39    27    28    1
    40    23    25    1
    41    24    26    1
@<TRIPOS>MOLECULE
*****
 38 41 0 0 0
SMALL
GASTEIGER

@<TRIPOS>ATOM
      1 C         139.1978  139.7108  166.0400 C.ar    1  UNL1        0.0504
      2 C         139.3389  138.2283  165.8610 C.ar    1  UNL1        0.0147
      3 C         138.9908  137.5950  164.5465 C.ar    1  UNL1        0.0014
      4 C         138.5016  138.4444  163.4111 C.ar    1  UNL1        0.0043
      5 C         138.1535  137.8112  162.0966 C.ar    1  UNL1        0.0208
      6 C         137.6643  138.6605  160.9611 C.ar    1  UNL1        0.1003
      7 N         137.5232  140.1431  161.1401 N.ar    1  UNL1       -0.2291
      8 C         137.8713  140.7763  162.4546 C.ar    1  UNL1        0.1321
      9 C         138.3605  139.9269  163.5901 C.ar    1  UNL1        0.0330
     10 C         138.7086  140.5601  164.9046 C.ar    1  UNL1        0.0174
     11 C         138.8007  139.9530  168.5961 C.2     1  UNL1        0.2261
     12 O         137.7073  138.9286  168.5233 O.2     1  UNL1       -0.2748
     13 N         139.5459  140.3440  167.3545 N.am    1  UNL1       -0.2839
     14 H         140.2636  141.0163  167.4023 H       1  UNL1        0.1549
     15 C         139.1488  140.5862  169.9106 C.3     1  UNL1        0.0854
     16 C         140.2876  140.0469  170.7246 C.3     1  UNL1        0.0096
     17 C         141.3926  139.2844  170.0557 C.3     1  UNL1        0.0005
     18 C         142.7213  139.9399  169.8216 C.3     1  UNL1        0.0005
     19 C         142.9305  140.7994  168.6102 C.3     1  UNL1        0.0096
     20 C         142.3552  142.1841  168.5646 C.3     1  UNL1        0.0871
     21 O         141.1387  143.6053  170.3675 O.2     1  UNL1       -0.2730
     22 C         142.4070  143.0582  169.7825 C.2     1  UNL1        0.2443
     23 N         143.7270  143.3852  170.4153 N.am    1  UNL1       -0.1970
     24 O         143.7788  144.2594  171.6332 O.3     1  UNL1       -0.2952
     25 H         144.5594  143.0261  170.0314 H       1  UNL1        0.1822
     26 H         142.8789  144.5253  171.8789 H       1  UNL1        0.2414
     27 N         137.7302  142.2589  162.6336 N.pl3   1  UNL1       -0.2979
     28 H         136.8473  142.6843  162.5396 H       1  UNL1        0.1536
     29 C         138.9343  143.0934  162.9559 C.ar    1  UNL1        0.0494
     30 C         138.7982  144.2953  163.8429 C.ar    1  UNL1        0.0146
     31 C         140.0022  145.1298  164.1652 C.ar    1  UNL1        0.0013
     32 C         141.3424  144.7624  163.6004 C.ar    1  UNL1        0.0001
     33 C         142.5465  145.5969  163.9227 C.ar    1  UNL1        0.0000
     34 C         143.8866  145.2295  163.3579 C.ar    1  UNL1        0.0000
     35 C         144.0227  144.0275  162.4709 C.ar    1  UNL1        0.0000
     36 C         142.8187  143.1930  162.1486 C.ar    1  UNL1        0.0000
     37 C         141.4785  143.5605  162.7134 C.ar    1  UNL1        0.0012
     38 C         140.2745  142.7260  162.3911 C.ar    1  UNL1        0.0146
@<TRIPOS>BOND
     1    21    22    2
     2    22    20    1
     3    20    19    1
     4    19    18    1
     5    18    17    1
     6    17    16    1
     7    16    15    1
     8    15    11    1
     9    11    12    2
    10    11    13   am
    11    13     1    1
    12     1     2   ar
    13     2     3   ar
    14     3     4   ar
    15     4     5   ar
    16     5     6   ar
    17     6     7   ar
    18     7     8   ar
    19     8    27    1
    20    27    29    1
    21    29    30   ar
    22    30    31   ar
    23    31    32   ar
    24    32    33   ar
    25    33    34   ar
    26    34    35   ar
    27    35    36   ar
    28    36    37   ar
    29    37    38   ar
    30     8     9   ar
    31     9    10   ar
    32    22    23   am
    33    23    24    1
    34    10     1   ar
    35     9     4   ar
    36    38    29   ar
    37    37    32   ar
    38    13    14    1
    39    27    28    1
    40    23    25    1
    41    24    26    1
@<TRIPOS>MOLECULE
*****
 38 41 0 0 0
SMALL
GASTEIGER

@<TRIPOS>ATOM
      1 C         144.2957  141.9903  160.5463 C.ar    1  UNL1        0.0504
      2 C         144.2579  142.4459  159.1177 C.ar    1  UNL1        0.0147
      3 C         143.8929  141.4783  158.0312 C.ar    1  UNL1        0.0014
      4 C         143.5658  140.0549  158.3733 C.ar    1  UNL1        0.0043
      5 C         143.2009  139.0873  157.2868 C.ar    1  UNL1        0.0208
      6 C         142.8738  137.6640  157.6288 C.ar    1  UNL1        0.1003
      7 N         142.9116  137.2082  159.0575 N.ar    1  UNL1       -0.2291
      8 C         143.2765  138.1759  160.1440 C.ar    1  UNL1        0.1321
      9 C         143.6036  139.5993  159.8018 C.ar    1  UNL1        0.0330
     10 C         143.9686  140.5669  160.8883 C.ar    1  UNL1        0.0174
     11 C         143.6363  143.9220  162.1536 C.2     1  UNL1        0.2261
     12 O         142.2470  143.9185  161.5879 O.2     1  UNL1       -0.2748
     13 N         144.6606  142.9579  161.6327 N.am    1  UNL1       -0.2839
     14 H         145.5724  142.9602  162.0040 H       1  UNL1        0.1549
     15 C         144.0013  144.8897  163.2401 C.3     1  UNL1        0.0854
     16 C         143.7917  144.5169  164.6779 C.3     1  UNL1        0.0096
     17 C         143.3852  143.1188  165.0386 C.3     1  UNL1        0.0005
     18 C         141.9370  142.7287  165.0133 C.3     1  UNL1        0.0005
     19 C         140.8777  143.7847  164.9014 C.3     1  UNL1        0.0096
     20 C         139.7127  143.5835  163.9781 C.3     1  UNL1        0.0871
     21 O         137.8012  144.7339  162.6466 O.2     1  UNL1       -0.2730
     22 C         139.2201  144.7208  163.1333 C.2     1  UNL1        0.2443
     23 N         140.1462  145.8450  162.7751 N.am    1  UNL1       -0.1970
     24 O         139.6536  146.9823  161.9302 O.3     1  UNL1       -0.2952
     25 H         141.0774  145.8364  163.0945 H       1  UNL1        0.1822
     26 H         138.7220  146.8364  161.7029 H       1  UNL1        0.2414
     27 N         143.3143  137.7202  161.5726 N.pl3   1  UNL1       -0.2979
     28 H         144.0855  137.2064  161.9051 H       1  UNL1        0.1536
     29 C         142.1772  138.0473  162.4945 C.ar    1  UNL1        0.0494
     30 C         140.7615  137.8664  162.0329 C.ar    1  UNL1        0.0146
     31 C         139.6244  138.1935  162.9548 C.ar    1  UNL1        0.0013
     32 C         139.9030  138.7016  164.3383 C.ar    1  UNL1        0.0001
     33 C         138.7659  139.0288  165.2603 C.ar    1  UNL1        0.0000
     34 C         139.0445  139.5369  166.6439 C.ar    1  UNL1        0.0000
     35 C         140.4602  139.7178  167.1055 C.ar    1  UNL1        0.0000
     36 C         141.5973  139.3907  166.1836 C.ar    1  UNL1        0.0000
     37 C         141.3187  138.8826  164.8000 C.ar    1  UNL1        0.0012
     38 C         142.4558  138.5554  163.8781 C.ar    1  UNL1        0.0146
@<TRIPOS>BOND
     1    21    22    2
     2    22    20    1
     3    20    19    1
     4    19    18    1
     5    18    17    1
     6    17    16    1
     7    16    15    1
     8    15    11    1
     9    11    12    2
    10    11    13   am
    11    13     1    1
    12     1     2   ar
    13     2     3   ar
    14     3     4   ar
    15     4     5   ar
    16     5     6   ar
    17     6     7   ar
    18     7     8   ar
    19     8    27    1
    20    27    29    1
    21    29    30   ar
    22    30    31   ar
    23    31    32   ar
    24    32    33   ar
    25    33    34   ar
    26    34    35   ar
    27    35    36   ar
    28    36    37   ar
    29    37    38   ar
    30     8     9   ar
    31     9    10   ar
    32    22    23   am
    33    23    24    1
    34    10     1   ar
    35     9     4   ar
    36    38    29   ar
    37    37    32   ar
    38    13    14    1
    39    27    28    1
    40    23    25    1
    41    24    26    1
@<TRIPOS>MOLECULE
*****
 38 41 0 0 0
SMALL
GASTEIGER

@<TRIPOS>ATOM
      1 C         139.1325  138.6325  165.4063 C.ar    1  UNL1        0.0504
      2 C         137.9682  138.3488  166.3085 C.ar    1  UNL1        0.0147
      3 C         137.9379  138.9188  167.6956 C.ar    1  UNL1        0.0014
      4 C         139.0719  139.7725  168.1806 C.ar    1  UNL1        0.0043
      5 C         139.0416  140.3425  169.5677 C.ar    1  UNL1        0.0208
      6 C         140.1755  141.1963  170.0527 C.ar    1  UNL1        0.1003
      7 N         141.3399  141.4801  169.1505 N.ar    1  UNL1       -0.2291
      8 C         141.3702  140.9101  167.7633 C.ar    1  UNL1        0.1321
      9 C         140.2361  140.0563  167.2784 C.ar    1  UNL1        0.0330
     10 C         140.2664  139.4863  165.8912 C.ar    1  UNL1        0.0174
     11 C         138.4617  138.7743  162.9003 C.2     1  UNL1        0.2261
     12 O         137.7303  140.0562  163.1686 O.2     1  UNL1       -0.2748
     13 N         139.1628  138.0625  164.0191 N.am    1  UNL1       -0.2839
     14 H         139.6428  137.2212  163.8430 H       1  UNL1        0.1549
     15 C         138.4920  138.2043  161.5132 C.3     1  UNL1        0.0854
     16 C         139.6098  138.5627  160.5793 C.3     1  UNL1        0.0096
     17 C         141.0347  138.3655  161.0046 C.3     1  UNL1        0.0005
     18 C         141.9166  139.5545  161.2465 C.3     1  UNL1        0.0005
     19 C         141.3097  140.8759  161.6147 C.3     1  UNL1        0.0096
     20 C         140.9571  141.8641  160.5426 C.3     1  UNL1        0.0871
     21 O         139.3306  143.6407  159.5689 O.2     1  UNL1       -0.2730
     22 C         139.6549  142.6059  160.6053 C.2     1  UNL1        0.2443
     23 N         138.6770  142.3130  161.7043 N.am    1  UNL1       -0.1970
     24 O         137.3748  143.0548  161.7670 O.3     1  UNL1       -0.2952
     25 H         138.8899  141.6338  162.3845 H       1  UNL1        0.1822
     26 H         137.3241  143.6820  161.0289 H       1  UNL1        0.2414
     27 N         142.5344  141.1938  166.8611 N.pl3   1  UNL1       -0.2979
     28 H         143.3986  140.7491  167.0181 H       1  UNL1        0.1536
     29 C         142.3819  142.1551  165.7197 C.ar    1  UNL1        0.0494
     30 C         143.5235  142.3833  164.7738 C.ar    1  UNL1        0.0146
     31 C         143.3711  143.3445  163.6324 C.ar    1  UNL1        0.0013
     32 C         142.0771  144.0775  163.4370 C.ar    1  UNL1        0.0001
     33 C         141.9247  145.0388  162.2956 C.ar    1  UNL1        0.0000
     34 C         140.6307  145.7718  162.1001 C.ar    1  UNL1        0.0000
     35 C         139.4891  145.5436  163.0460 C.ar    1  UNL1        0.0000
     36 C         139.6415  144.5824  164.1874 C.ar    1  UNL1        0.0000
     37 C         140.9356  143.8493  164.3829 C.ar    1  UNL1        0.0012
     38 C         141.0880  142.8881  165.5243 C.ar    1  UNL1        0.0146
@<TRIPOS>BOND
     1    21    22    2
     2    22    20    1
     3    20    19    1
     4    19    18    1
     5    18    17    1
     6    17    16    1
     7    16    15    1
     8    15    11    1
     9    11    12    2
    10    11    13   am
    11    13     1    1
    12     1     2   ar
    13     2     3   ar
    14     3     4   ar
    15     4     5   ar
    16     5     6   ar
    17     6     7   ar
    18     7     8   ar
    19     8    27    1
    20    27    29    1
    21    29    30   ar
    22    30    31   ar
    23    31    32   ar
    24    32    33   ar
    25    33    34   ar
    26    34    35   ar
    27    35    36   ar
    28    36    37   ar
    29    37    38   ar
    30     8     9   ar
    31     9    10   ar
    32    22    23   am
    33    23    24    1
    34    10     1   ar
    35     9     4   ar
    36    38    29   ar
    37    37    32   ar
    38    13    14    1
    39    27    28    1
    40    23    25    1
    41    24    26    1
@<TRIPOS>MOLECULE
*****
 38 41 0 0 0
SMALL
GASTEIGER

@<TRIPOS>ATOM
      1 C         143.5479  142.5766  161.9068 C.ar    1  UNL1        0.0504
      2 C         144.1451  142.5001  160.5330 C.ar    1  UNL1        0.0147
      3 C         143.4860  143.2104  159.3880 C.ar    1  UNL1        0.0014
      4 C         142.2296  143.9972  159.6169 C.ar    1  UNL1        0.0043
      5 C         141.5704  144.7075  158.4719 C.ar    1  UNL1        0.0208
      6 C         140.3140  145.4943  158.7008 C.ar    1  UNL1        0.1003
      7 N         139.7167  145.5708  160.0747 N.ar    1  UNL1       -0.2291
      8 C         140.3759  144.8605  161.2196 C.ar    1  UNL1        0.1321
      9 C         141.6324  144.0737  160.9907 C.ar    1  UNL1        0.0330
     10 C         142.2915  143.3634  162.1357 C.ar    1  UNL1        0.0174
     11 C         144.4849  140.3950  162.9617 C.2     1  UNL1        0.2261
     12 O         144.1035  139.6340  161.7266 O.2     1  UNL1       -0.2748
     13 N         144.2071  141.8663  163.0518 N.am    1  UNL1       -0.2839
     14 H         144.4574  142.3658  163.8624 H       1  UNL1        0.1549
     15 C         145.1440  139.6847  164.1067 C.3     1  UNL1        0.0854
     16 C         144.3068  139.0400  165.1713 C.3     1  UNL1        0.0096
     17 C         142.8109  139.0567  165.0617 C.3     1  UNL1        0.0005
     18 C         142.0324  137.7854  165.2280 C.3     1  UNL1        0.0005
     19 C         140.8180  137.5337  164.3844 C.3     1  UNL1        0.0096
     20 C         140.5523  138.3862  163.1791 C.3     1  UNL1        0.0871
     21 O         140.3898  138.3047  160.5873 O.2     1  UNL1       -0.2730
     22 C         141.1426  138.0130  161.8516 C.2     1  UNL1        0.2443
     23 N         142.4857  137.3481  161.7883 N.am    1  UNL1       -0.1970
     24 O         143.0760  136.9749  160.4608 O.3     1  UNL1       -0.2952
     25 H         142.9797  137.1566  162.6180 H       1  UNL1        0.1822
     26 H         142.4655  137.2312  159.7519 H       1  UNL1        0.2414
     27 N         139.7787  144.9370  162.5935 N.pl3   1  UNL1       -0.2979
     28 H         139.6590  145.8111  163.0302 H       1  UNL1        0.1536
     29 C         139.3639  143.6815  163.3019 C.ar    1  UNL1        0.0494
     30 C         138.2715  142.8253  162.7331 C.ar    1  UNL1        0.0146
     31 C         137.8567  141.5699  163.4415 C.ar    1  UNL1        0.0013
     32 C         138.5343  141.1707  164.7187 C.ar    1  UNL1        0.0001
     33 C         138.1195  139.9153  165.4272 C.ar    1  UNL1        0.0000
     34 C         138.7971  139.5161  166.7045 C.ar    1  UNL1        0.0000
     35 C         139.8895  140.3723  167.2733 C.ar    1  UNL1        0.0000
     36 C         140.3043  141.6277  166.5649 C.ar    1  UNL1        0.0000
     37 C         139.6267  142.0269  165.2876 C.ar    1  UNL1        0.0012
     38 C         140.0415  143.2823  164.5792 C.ar    1  UNL1        0.0146
@<TRIPOS>BOND
     1    21    22    2
     2    22    20    1
     3    20    19    1
     4    19    18    1
     5    18    17    1
     6    17    16    1
     7    16    15    1
     8    15    11    1
     9    11    12    2
    10    11    13   am
    11    13     1    1
    12     1     2   ar
    13     2     3   ar
    14     3     4   ar
    15     4     5   ar
    16     5     6   ar
    17     6     7   ar
    18     7     8   ar
    19     8    27    1
    20    27    29    1
    21    29    30   ar
    22    30    31   ar
    23    31    32   ar
    24    32    33   ar
    25    33    34   ar
    26    34    35   ar
    27    35    36   ar
    28    36    37   ar
    29    37    38   ar
    30     8     9   ar
    31     9    10   ar
    32    22    23   am
    33    23    24    1
    34    10     1   ar
    35     9     4   ar
    36    38    29   ar
    37    37    32   ar
    38    13    14    1
    39    27    28    1
    40    23    25    1
    41    24    26    1
@<TRIPOS>MOLECULE
*****
 38 41 0 0 0
SMALL
GASTEIGER

@<TRIPOS>ATOM
      1 C         138.9481  138.7533  165.8277 C.ar    1  UNL1        0.0504
      2 C         137.8217  138.4887  166.7822 C.ar    1  UNL1        0.0147
      3 C         137.8690  139.0502  168.1723 C.ar    1  UNL1        0.0014
      4 C         139.0427  139.8763  168.6079 C.ar    1  UNL1        0.0043
      5 C         139.0901  140.4378  169.9981 C.ar    1  UNL1        0.0208
      6 C         140.2638  141.2640  170.4337 C.ar    1  UNL1        0.1003
      7 N         141.3903  141.5286  169.4792 N.ar    1  UNL1       -0.2291
      8 C         141.3430  140.9671  168.0890 C.ar    1  UNL1        0.1321
      9 C         140.1692  140.1409  167.6534 C.ar    1  UNL1        0.0330
     10 C         140.1218  139.5794  166.2633 C.ar    1  UNL1        0.0174
     11 C         138.5058  139.0696  163.2872 C.2     1  UNL1        0.2261
     12 O         138.1581  140.5089  163.5269 O.2     1  UNL1       -0.2748
     13 N         138.9008  138.1918  164.4375 N.am    1  UNL1       -0.2839
     14 H         139.1290  137.2471  164.2802 H       1  UNL1        0.1549
     15 C         138.4585  138.5081  161.8970 C.3     1  UNL1        0.0854
     16 C         139.7000  138.4833  161.0555 C.3     1  UNL1        0.0096
     17 C         140.1291  139.7155  160.3155 C.3     1  UNL1        0.0005
     18 C         140.6699  140.8935  161.0703 C.3     1  UNL1        0.0005
     19 C         141.6899  140.6880  162.1507 C.3     1  UNL1        0.0096
     20 C         143.0292  140.1012  161.8158 C.3     1  UNL1        0.0871
     21 O         144.4901  139.6235  163.9106 O.2     1  UNL1       -0.2730
     22 C         144.2219  140.4198  162.6679 C.2     1  UNL1        0.2443
     23 N         145.1462  141.5347  162.2775 N.am    1  UNL1       -0.1970
     24 O         146.3389  141.8534  163.1296 O.3     1  UNL1       -0.2952
     25 H         144.9702  142.0573  161.4619 H       1  UNL1        0.1822
     26 H         146.3650  141.2493  163.8881 H       1  UNL1        0.2414
     27 N         142.4694  141.2318  167.1345 N.pl3   1  UNL1       -0.2979
     28 H         143.3171  140.7394  167.2248 H       1  UNL1        0.1536
     29 C         142.3042  142.2466  166.0423 C.ar    1  UNL1        0.0494
     30 C         143.5128  142.8562  165.3959 C.ar    1  UNL1        0.0146
     31 C         143.3477  143.8710  164.3038 C.ar    1  UNL1        0.0013
     32 C         141.9740  144.2763  163.8581 C.ar    1  UNL1        0.0001
     33 C         141.8088  145.2912  162.7659 C.ar    1  UNL1        0.0000
     34 C         140.4352  145.6966  162.3202 C.ar    1  UNL1        0.0000
     35 C         139.2266  145.0871  162.9666 C.ar    1  UNL1        0.0000
     36 C         139.3917  144.0722  164.0588 C.ar    1  UNL1        0.0000
     37 C         140.7654  143.6668  164.5045 C.ar    1  UNL1        0.0012
     38 C         140.9305  142.6520  165.5967 C.ar    1  UNL1        0.0146
@<TRIPOS>BOND
     1    21    22    2
     2    22    20    1
     3    20    19    1
     4    19    18    1
     5    18    17    1
     6    17    16    1
     7    16    15    1
     8    15    11    1
     9    11    12    2
    10    11    13   am
    11    13     1    1
    12     1     2   ar
    13     2     3   ar
    14     3     4   ar
    15     4     5   ar
    16     5     6   ar
    17     6     7   ar
    18     7     8   ar
    19     8    27    1
    20    27    29    1
    21    29    30   ar
    22    30    31   ar
    23    31    32   ar
    24    32    33   ar
    25    33    34   ar
    26    34    35   ar
    27    35    36   ar
    28    36    37   ar
    29    37    38   ar
    30     8     9   ar
    31     9    10   ar
    32    22    23   am
    33    23    24    1
    34    10     1   ar
    35     9     4   ar
    36    38    29   ar
    37    37    32   ar
    38    13    14    1
    39    27    28    1
    40    23    25    1
    41    24    26    1
@<TRIPOS>MOLECULE
*****
 38 41 0 0 0
SMALL
GASTEIGER

@<TRIPOS>ATOM
      1 C         138.8751  142.5985  160.4482 C.ar    1  UNL1        0.0504
      2 C         139.2886  143.2870  159.1813 C.ar    1  UNL1        0.0147
      3 C         139.7852  142.4814  158.0176 C.ar    1  UNL1        0.0014
      4 C         139.8685  140.9873  158.1207 C.ar    1  UNL1        0.0043
      5 C         140.3651  140.1817  156.9569 C.ar    1  UNL1        0.0208
      6 C         140.4484  138.6876  157.0600 C.ar    1  UNL1        0.1003
      7 N         140.0349  137.9990  158.3269 N.ar    1  UNL1       -0.2291
      8 C         139.5382  138.8046  159.4907 C.ar    1  UNL1        0.1321
      9 C         139.4550  140.2988  159.3875 C.ar    1  UNL1        0.0330
     10 C         138.9583  141.1044  160.5512 C.ar    1  UNL1        0.0174
     11 C         139.3551  144.0867  162.5229 C.2     1  UNL1        0.2261
     12 O         140.8286  143.9637  162.2702 O.2     1  UNL1       -0.2748
     13 N         138.3784  143.4041  161.6119 N.am    1  UNL1       -0.2839
     14 H         137.4113  143.4848  161.7778 H       1  UNL1        0.1549
     15 C         138.8584  144.8923  163.6867 C.3     1  UNL1        0.0854
     16 C         139.1964  144.4742  165.0871 C.3     1  UNL1        0.0096
     17 C         139.4577  143.0298  165.3961 C.3     1  UNL1        0.0005
     18 C         140.7228  142.6295  166.0955 C.3     1  UNL1        0.0005
     19 C         141.8193  141.9487  165.3311 C.3     1  UNL1        0.0096
     20 C         143.2120  142.5051  165.3614 C.3     1  UNL1        0.0871
     21 O         144.8721  142.7809  163.3820 O.2     1  UNL1       -0.2730
     22 C         143.7269  143.3014  164.1991 C.2     1  UNL1        0.2443
     23 N         143.0967  144.6181  163.8541 N.am    1  UNL1       -0.1970
     24 O         143.6117  145.4143  162.6918 O.3     1  UNL1       -0.2952
     25 H         142.3451  144.9597  164.3904 H       1  UNL1        0.1822
     26 H         144.3476  144.9393  162.2751 H       1  UNL1        0.2414
     27 N         139.1247  138.1161  160.7575 N.pl3   1  UNL1       -0.2979
     28 H         138.2669  137.6348  160.7988 H       1  UNL1        0.1536
     29 C         140.0183  138.1609  161.9615 C.ar    1  UNL1        0.0494
     30 C         139.5132  137.6776  163.2887 C.ar    1  UNL1        0.0146
     31 C         140.4067  137.7223  164.4927 C.ar    1  UNL1        0.0013
     32 C         141.8052  138.2505  164.3695 C.ar    1  UNL1        0.0001
     33 C         142.6987  138.2953  165.5736 C.ar    1  UNL1        0.0000
     34 C         144.0972  138.8234  165.4504 C.ar    1  UNL1        0.0000
     35 C         144.6023  139.3067  164.1233 C.ar    1  UNL1        0.0000
     36 C         143.7088  139.2619  162.9193 C.ar    1  UNL1        0.0000
     37 C         142.3102  138.7338  163.0424 C.ar    1  UNL1        0.0012
     38 C         141.4168  138.6890  161.8384 C.ar    1  UNL1        0.0146
@<TRIPOS>BOND
     1    21    22    2
     2    22    20    1
     3    20    19    1
     4    19    18    1
     5    18    17    1
     6    17    16    1
     7    16    15    1
     8    15    11    1
     9    11    12    2
    10    11    13   am
    11    13     1    1
    12     1     2   ar
    13     2     3   ar
    14     3     4   ar
    15     4     5   ar
    16     5     6   ar
    17     6     7   ar
    18     7     8   ar
    19     8    27    1
    20    27    29    1
    21    29    30   ar
    22    30    31   ar
    23    31    32   ar
    24    32    33   ar
    25    33    34   ar
    26    34    35   ar
    27    35    36   ar
    28    36    37   ar
    29    37    38   ar
    30     8     9   ar
    31     9    10   ar
    32    22    23   am
    33    23    24    1
    34    10     1   ar
    35     9     4   ar
    36    38    29   ar
    37    37    32   ar
    38    13    14    1
    39    27    28    1
    40    23    25    1
    41    24    26    1
