@<TRIPOS>MOLECULE
*****
 29 33 0 0 0
SMALL
GASTEIGER

@<TRIPOS>ATOM
      1 C         142.3041  137.3837  157.4281 C.3     1  UNL1        0.0181
      2 C         141.6635  136.4479  156.4462 C.3     1  UNL1        0.0036
      3 C         141.3099  135.3866  155.4469 C.3     1  UNL1        0.0227
      4 C         142.5481  134.5908  155.1580 C.3     1  UNL1        0.0870
      5 C         143.6671  135.1602  155.9788 C.3     1  UNL1        0.0227
      6 C         143.1204  136.3080  156.7749 C.3     1  UNL1        0.0036
      7 N         142.6496  133.4295  154.2141 N.ar    1  UNL1       -0.3109
      8 C         142.0177  133.3387  152.8567 C.ar    1  UNL1        0.1785
      9 N         142.3784  132.0082  152.2656 N.ar    1  UNL1       -0.2239
     10 C         143.2332  131.2765  153.2576 C.ar    1  UNL1        0.0988
     11 C         143.8806  129.9240  153.2199 C.ar    1  UNL1        0.0206
     12 C         144.6956  129.4499  154.3865 C.ar    1  UNL1        0.0016
     13 C         144.8632  130.3283  155.5908 C.ar    1  UNL1        0.0016
     14 C         144.2158  131.6809  155.6285 C.ar    1  UNL1        0.0188
     15 C         143.4008  132.1550  154.4619 C.ar    1  UNL1        0.0789
     16 C         142.2026  138.5450  158.3720 C.3     1  UNL1        0.0718
     17 N         141.3390  138.4447  159.5943 N.am    1  UNL1       -0.3025
     18 C         141.9237  137.9603  160.8880 C.2     1  UNL1        0.2458
     19 O         143.3719  137.5761  160.9593 O.2     1  UNL1       -0.2701
     20 H         140.3885  138.6969  159.5475 H       1  UNL1        0.1497
     21 C         141.0600  137.8601  162.1104 C.ar    1  UNL1        0.0534
     22 C         139.5732  138.0191  161.9933 C.ar    1  UNL1        0.0054
     23 C         138.7095  137.9189  163.2156 C.ar    1  UNL1        0.0115
     24 C         139.3329  137.6596  164.5551 C.ar    1  UNL1        0.0577
     25 CL        138.4693  137.5594  165.7774 Cl      1  UNL1       -0.0822
     26 C         140.8198  137.5005  164.6723 C.ar    1  UNL1        0.0115
     27 C         141.6834  137.6008  163.4499 C.ar    1  UNL1        0.0054
     28 C         143.7098  139.9632  156.8012 C.3     1  UNL1        0.0017
     29 C         142.9647  139.8067  158.0936 C.3     1  UNL1        0.0196
@<TRIPOS>BOND
     1    28    29    1
     2    29    16    1
     3    16    17    1
     4    17    18   am
     5    18    19    2
     6    18    21    1
     7    21    22   ar
     8    22    23   ar
     9    23    24   ar
    10    24    25    1
    11    24    26   ar
    12    26    27   ar
    13     1    16    1
    14     1     2    1
    15     2     3    1
    16     3     4    1
    17     4     7    1
    18     7     8   ar
    19     8     9   ar
    20     9    10   ar
    21    10    11   ar
    22    11    12   ar
    23    12    13   ar
    24    13    14   ar
    25    14    15   ar
    26     4     5    1
    27     6     5    1
    28    27    21   ar
    29     6     1    1
    30     6     2    1
    31    15     7   ar
    32    15    10   ar
    33    17    20    1
@<TRIPOS>MOLECULE
*****
 29 33 0 0 0
SMALL
GASTEIGER

@<TRIPOS>ATOM
      1 C         140.1316  138.2148  157.6355 C.3     1  UNL1        0.0181
      2 C         140.3555  138.3219  159.1149 C.3     1  UNL1        0.0036
      3 C         140.3294  138.6183  160.5851 C.3     1  UNL1        0.0227
      4 C         139.1809  139.5459  160.8507 C.3     1  UNL1        0.0870
      5 C         138.4971  139.8228  159.5447 C.3     1  UNL1        0.0227
      6 C         139.2230  139.0663  158.4719 C.3     1  UNL1        0.0036
      7 N         138.7855  140.0994  162.1876 N.ar    1  UNL1       -0.3109
      8 C         138.4195  141.5246  162.4785 C.ar    1  UNL1        0.1785
      9 N         138.0946  141.6309  163.9390 N.ar    1  UNL1       -0.2239
     10 C         138.2597  140.2713  164.5508 C.ar    1  UNL1        0.0988
     11 C         138.0764  139.7729  165.9536 C.ar    1  UNL1        0.0206
     12 C         138.3202  138.3279  166.2740 C.ar    1  UNL1        0.0016
     13 C         138.7472  137.3814  165.1915 C.ar    1  UNL1        0.0016
     14 C         138.9305  137.8798  163.7887 C.ar    1  UNL1        0.0188
     15 C         138.6868  139.3247  163.4683 C.ar    1  UNL1        0.0789
     16 C         140.5269  137.6613  156.2987 C.3     1  UNL1        0.0718
     17 N         141.0913  136.2752  156.1979 N.am    1  UNL1       -0.3025
     18 C         142.5415  136.0325  156.4945 C.2     1  UNL1        0.2458
     19 O         143.4274  137.1759  156.8919 O.2     1  UNL1       -0.2701
     20 H         140.5099  135.5248  155.9371 H       1  UNL1        0.1497
     21 C         143.1059  134.6463  156.3937 C.ar    1  UNL1        0.0534
     22 C         143.8966  134.0738  157.5325 C.ar    1  UNL1        0.0054
     23 C         144.4609  132.6877  157.4318 C.ar    1  UNL1        0.0115
     24 C         144.2346  131.8741  156.1921 C.ar    1  UNL1        0.0577
     25 CL        144.7989  130.4880  156.0914 Cl      1  UNL1       -0.0822
     26 C         143.4438  132.4465  155.0532 C.ar    1  UNL1        0.0115
     27 C         142.8795  133.8327  155.1540 C.ar    1  UNL1        0.0054
     28 C         140.6835  139.9578  155.0937 C.3     1  UNL1        0.0017
     29 C         140.3579  138.4940  155.0624 C.3     1  UNL1        0.0196
@<TRIPOS>BOND
     1    28    29    1
     2    29    16    1
     3    16    17    1
     4    17    18   am
     5    18    19    2
     6    18    21    1
     7    21    22   ar
     8    22    23   ar
     9    23    24   ar
    10    24    25    1
    11    24    26   ar
    12    26    27   ar
    13     1    16    1
    14     1     2    1
    15     2     3    1
    16     3     4    1
    17     4     7    1
    18     7     8   ar
    19     8     9   ar
    20     9    10   ar
    21    10    11   ar
    22    11    12   ar
    23    12    13   ar
    24    13    14   ar
    25    14    15   ar
    26     4     5    1
    27     6     5    1
    28    27    21   ar
    29     6     1    1
    30     6     2    1
    31    15     7   ar
    32    15    10   ar
    33    17    20    1
@<TRIPOS>MOLECULE
*****
 29 33 0 0 0
SMALL
GASTEIGER

@<TRIPOS>ATOM
      1 C         137.7789  140.8280  157.0350 C.3     1  UNL1        0.0181
      2 C         138.2606  140.7678  158.4543 C.3     1  UNL1        0.0036
      3 C         138.9196  140.4710  159.7687 C.3     1  UNL1        0.0227
      4 C         139.8676  139.3268  159.5642 C.3     1  UNL1        0.0870
      5 C         139.7947  138.9164  158.1233 C.3     1  UNL1        0.0227
      6 C         138.8015  139.8070  157.4374 C.3     1  UNL1        0.0036
      7 N         140.7361  138.7025  160.6159 N.ar    1  UNL1       -0.3109
      8 C         142.1897  138.3619  160.4707 C.ar    1  UNL1        0.1785
      9 N         142.6555  137.7582  161.7625 N.ar    1  UNL1       -0.2239
     10 C         141.4898  137.7257  162.7059 C.ar    1  UNL1        0.0988
     11 C         141.3552  137.2401  164.1187 C.ar    1  UNL1        0.0206
     12 C         140.0344  137.3382  164.8228 C.ar    1  UNL1        0.0016
     13 C         138.8482  137.9218  164.1142 C.ar    1  UNL1        0.0016
     14 C         138.9827  138.4075  162.7014 C.ar    1  UNL1        0.0188
     15 C         140.3035  138.3094  161.9973 C.ar    1  UNL1        0.0789
     16 C         136.9104  141.4522  155.9834 C.3     1  UNL1        0.0718
     17 N         135.4186  141.4402  156.1386 N.am    1  UNL1       -0.3025
     18 C         134.6400  140.2015  155.8077 C.2     1  UNL1        0.2458
     19 O         135.3534  138.9748  155.3216 O.2     1  UNL1       -0.2701
     20 H         134.9503  142.2453  156.4576 H       1  UNL1        0.1497
     21 C         133.1480  140.1895  155.9629 C.ar    1  UNL1        0.0534
     22 C         132.4725  139.0269  156.6275 C.ar    1  UNL1        0.0054
     23 C         130.9806  139.0149  156.7827 C.ar    1  UNL1        0.0115
     24 C         130.1643  140.1656  156.2732 C.ar    1  UNL1        0.0577
     25 CL        128.6724  140.1536  156.4285 Cl      1  UNL1       -0.0822
     26 C         130.8399  141.3283  155.6086 C.ar    1  UNL1        0.0115
     27 C         132.3317  141.3403  155.4534 C.ar    1  UNL1        0.0054
     28 C         136.7049  142.9492  153.8699 C.3     1  UNL1        0.0017
     29 C         137.5338  142.0885  154.7764 C.3     1  UNL1        0.0196
@<TRIPOS>BOND
     1    28    29    1
     2    29    16    1
     3    16    17    1
     4    17    18   am
     5    18    19    2
     6    18    21    1
     7    21    22   ar
     8    22    23   ar
     9    23    24   ar
    10    24    25    1
    11    24    26   ar
    12    26    27   ar
    13     1    16    1
    14     1     2    1
    15     2     3    1
    16     3     4    1
    17     4     7    1
    18     7     8   ar
    19     8     9   ar
    20     9    10   ar
    21    10    11   ar
    22    11    12   ar
    23    12    13   ar
    24    13    14   ar
    25    14    15   ar
    26     4     5    1
    27     6     5    1
    28    27    21   ar
    29     6     1    1
    30     6     2    1
    31    15     7   ar
    32    15    10   ar
    33    17    20    1
@<TRIPOS>MOLECULE
*****
 29 33 0 0 0
SMALL
GASTEIGER

@<TRIPOS>ATOM
      1 C         140.5185  145.1290  157.9120 C.3     1  UNL1        0.0181
      2 C         139.9668  144.1200  158.8752 C.3     1  UNL1        0.0036
      3 C         139.4728  143.3328  160.0527 C.3     1  UNL1        0.0227
      4 C         139.6335  144.1821  161.2785 C.3     1  UNL1        0.0870
      5 C         140.2267  145.4944  160.8588 C.3     1  UNL1        0.0227
      6 C         140.4327  145.4559  159.3735 C.3     1  UNL1        0.0036
      7 N         139.2655  143.7885  162.6784 N.ar    1  UNL1       -0.3109
      8 C         137.8782  143.7501  163.2477 C.ar    1  UNL1        0.1785
      9 N         137.9756  143.3020  164.6758 N.ar    1  UNL1       -0.2239
     10 C         139.4229  143.0634  164.9892 C.ar    1  UNL1        0.0988
     11 C         140.1179  142.6112  166.2392 C.ar    1  UNL1        0.0206
     12 C         141.6101  142.4597  166.2546 C.ar    1  UNL1        0.0016
     13 C         142.4074  142.7603  165.0201 C.ar    1  UNL1        0.0016
     14 C         141.7124  143.2125  163.7701 C.ar    1  UNL1        0.0188
     15 C         140.2202  143.3641  163.7547 C.ar    1  UNL1        0.0789
     16 C         140.8865  145.5227  156.5122 C.3     1  UNL1        0.0718
     17 N         140.7233  146.9453  156.0657 N.am    1  UNL1       -0.3025
     18 C         139.4326  147.3938  155.4469 C.2     1  UNL1        0.2458
     19 O         138.3051  146.4196  155.2745 O.2     1  UNL1       -0.2701
     20 H         141.4633  147.5847  156.1789 H       1  UNL1        0.1497
     21 C         139.2694  148.8166  155.0004 C.ar    1  UNL1        0.0534
     22 C         138.5893  149.8100  155.8950 C.ar    1  UNL1        0.0054
     23 C         138.4261  151.2327  155.4485 C.ar    1  UNL1        0.0115
     24 C         138.9430  151.6619  154.1074 C.ar    1  UNL1        0.0577
     25 CL        138.7799  153.0846  153.6609 Cl      1  UNL1       -0.0822
     26 C         139.6232  150.6684  153.2127 C.ar    1  UNL1        0.0115
     27 C         139.7864  149.2457  153.6592 C.ar    1  UNL1        0.0054
     28 C         141.9607  144.9157  154.2258 C.3     1  UNL1        0.0017
     29 C         141.4177  144.4936  155.5587 C.3     1  UNL1        0.0196
@<TRIPOS>BOND
     1    28    29    1
     2    29    16    1
     3    16    17    1
     4    17    18   am
     5    18    19    2
     6    18    21    1
     7    21    22   ar
     8    22    23   ar
     9    23    24   ar
    10    24    25    1
    11    24    26   ar
    12    26    27   ar
    13     1    16    1
    14     1     2    1
    15     2     3    1
    16     3     4    1
    17     4     7    1
    18     7     8   ar
    19     8     9   ar
    20     9    10   ar
    21    10    11   ar
    22    11    12   ar
    23    12    13   ar
    24    13    14   ar
    25    14    15   ar
    26     4     5    1
    27     6     5    1
    28    27    21   ar
    29     6     1    1
    30     6     2    1
    31    15     7   ar
    32    15    10   ar
    33    17    20    1
@<TRIPOS>MOLECULE
*****
 29 33 0 0 0
SMALL
GASTEIGER

@<TRIPOS>ATOM
      1 C         140.7719  138.0475  157.6473 C.3     1  UNL1        0.0181
      2 C         140.9785  138.3478  159.1024 C.3     1  UNL1        0.0036
      3 C         140.9010  138.7799  160.5367 C.3     1  UNL1        0.0227
      4 C         139.5865  139.4724  160.7421 C.3     1  UNL1        0.0870
      5 C         138.8513  139.4684  159.4346 C.3     1  UNL1        0.0227
      6 C         139.7116  138.7734  158.4212 C.3     1  UNL1        0.0036
      7 N         139.0935  140.0649  162.0289 N.ar    1  UNL1       -0.3109
      8 C         138.7055  141.4971  162.2486 C.ar    1  UNL1        0.1785
      9 N         138.2742  141.6465  163.6774 N.ar    1  UNL1       -0.2239
     10 C         138.3957  140.3066  164.3408 C.ar    1  UNL1        0.0988
     11 C         138.1106  139.8504  165.7410 C.ar    1  UNL1        0.0206
     12 C         138.3318  138.4167  166.1223 C.ar    1  UNL1        0.0016
     13 C         138.8382  137.4392  165.1034 C.ar    1  UNL1        0.0016
     14 C         139.1233  137.8954  163.7033 C.ar    1  UNL1        0.0188
     15 C         138.9020  139.3291  163.3220 C.ar    1  UNL1        0.0789
     16 C         141.2648  137.4551  156.3605 C.3     1  UNL1        0.0718
     17 N         141.1434  135.9796  156.1191 N.am    1  UNL1       -0.3025
     18 C         142.3488  135.0965  156.2506 C.2     1  UNL1        0.2458
     19 O         143.6754  135.6888  156.6235 O.2     1  UNL1       -0.2701
     20 H         140.2727  135.5909  155.8743 H       1  UNL1        0.1497
     21 C         142.2274  133.6210  156.0091 C.ar    1  UNL1        0.0534
     22 C         143.0524  132.6593  156.8118 C.ar    1  UNL1        0.0054
     23 C         142.9311  131.1839  156.5704 C.ar    1  UNL1        0.0115
     24 C         141.9846  130.6701  155.5262 C.ar    1  UNL1        0.0577
     25 CL        141.8633  129.1946  155.2848 Cl      1  UNL1       -0.0822
     26 C         141.1595  131.6318  154.7235 C.ar    1  UNL1        0.0115
     27 C         141.2809  133.1072  154.9649 C.ar    1  UNL1        0.0054
     28 C         143.0920  139.1571  155.6433 C.3     1  UNL1        0.0017
     29 C         141.8791  138.3381  155.3150 C.3     1  UNL1        0.0196
@<TRIPOS>BOND
     1    28    29    1
     2    29    16    1
     3    16    17    1
     4    17    18   am
     5    18    19    2
     6    18    21    1
     7    21    22   ar
     8    22    23   ar
     9    23    24   ar
    10    24    25    1
    11    24    26   ar
    12    26    27   ar
    13     1    16    1
    14     1     2    1
    15     2     3    1
    16     3     4    1
    17     4     7    1
    18     7     8   ar
    19     8     9   ar
    20     9    10   ar
    21    10    11   ar
    22    11    12   ar
    23    12    13   ar
    24    13    14   ar
    25    14    15   ar
    26     4     5    1
    27     6     5    1
    28    27    21   ar
    29     6     1    1
    30     6     2    1
    31    15     7   ar
    32    15    10   ar
    33    17    20    1
@<TRIPOS>MOLECULE
*****
 29 33 0 0 0
SMALL
GASTEIGER

@<TRIPOS>ATOM
      1 C         142.9957  139.9529  161.5630 C.3     1  UNL1        0.0181
      2 C         143.1370  139.5360  160.1290 C.3     1  UNL1        0.0036
      3 C         142.9929  138.9955  158.7371 C.3     1  UNL1        0.0227
      4 C         141.6584  138.3179  158.6387 C.3     1  UNL1        0.0870
      5 C         140.9775  138.4395  159.9698 C.3     1  UNL1        0.0227
      6 C         141.8913  139.1923  160.8908 C.3     1  UNL1        0.0036
      7 N         141.1022  137.6381  157.4228 N.ar    1  UNL1       -0.3109
      8 C         139.7149  137.8039  156.8769 C.ar    1  UNL1        0.1785
      9 N         139.5911  136.9413  155.6560 N.ar    1  UNL1       -0.2239
     10 C         140.9018  136.2424  155.4473 C.ar    1  UNL1        0.0988
     11 C         141.3655  135.2695  154.4041 C.ar    1  UNL1        0.0206
     12 C         142.7632  134.7273  154.4527 C.ar    1  UNL1        0.0016
     13 C         143.6971  135.1579  155.5447 C.ar    1  UNL1        0.0016
     14 C         143.2334  136.1308  156.5879 C.ar    1  UNL1        0.0188
     15 C         141.8357  136.6730  156.5392 C.ar    1  UNL1        0.0789
     16 C         143.5518  140.6327  162.7789 C.3     1  UNL1        0.0718
     17 N         142.6992  140.7976  164.0019 N.am    1  UNL1       -0.3025
     18 C         142.6145  139.6917  165.0118 C.2     1  UNL1        0.2458
     19 O         143.3825  138.4209  164.7987 O.2     1  UNL1       -0.2701
     20 H         142.1952  141.6316  164.1418 H       1  UNL1        0.1497
     21 C         141.7618  139.8566  166.2349 C.ar    1  UNL1        0.0534
     22 C         142.4041  140.0557  167.5756 C.ar    1  UNL1        0.0054
     23 C         141.5515  140.2205  168.7987 C.ar    1  UNL1        0.0115
     24 C         140.0565  140.1863  168.6809 C.ar    1  UNL1        0.0577
     25 CL        139.2039  140.3512  169.9039 Cl      1  UNL1       -0.0822
     26 C         139.4142  139.9872  167.3401 C.ar    1  UNL1        0.0115
     27 C         140.2668  139.8223  166.1170 C.ar    1  UNL1        0.0054
     28 C         145.5143  141.8344  163.9850 C.3     1  UNL1        0.0017
     29 C         144.9607  141.1477  162.7718 C.3     1  UNL1        0.0196
@<TRIPOS>BOND
     1    28    29    1
     2    29    16    1
     3    16    17    1
     4    17    18   am
     5    18    19    2
     6    18    21    1
     7    21    22   ar
     8    22    23   ar
     9    23    24   ar
    10    24    25    1
    11    24    26   ar
    12    26    27   ar
    13     1    16    1
    14     1     2    1
    15     2     3    1
    16     3     4    1
    17     4     7    1
    18     7     8   ar
    19     8     9   ar
    20     9    10   ar
    21    10    11   ar
    22    11    12   ar
    23    12    13   ar
    24    13    14   ar
    25    14    15   ar
    26     4     5    1
    27     6     5    1
    28    27    21   ar
    29     6     1    1
    30     6     2    1
    31    15     7   ar
    32    15    10   ar
    33    17    20    1
@<TRIPOS>MOLECULE
*****
 29 33 0 0 0
SMALL
GASTEIGER

@<TRIPOS>ATOM
      1 C         141.7617  138.0504  157.7041 C.3     1  UNL1        0.0181
      2 C         141.2343  137.1011  156.6692 C.3     1  UNL1        0.0036
      3 C         140.9894  136.0178  155.6610 C.3     1  UNL1        0.0227
      4 C         142.2292  135.1783  155.5720 C.3     1  UNL1        0.0870
      5 C         143.2406  135.7427  156.5253 C.3     1  UNL1        0.0227
      6 C         142.6257  136.9311  157.2033 C.3     1  UNL1        0.0036
      7 N         142.4237  133.9840  154.6855 N.ar    1  UNL1       -0.3109
      8 C         141.8123  133.7828  153.3306 C.ar    1  UNL1        0.1785
      9 N         142.2745  132.4557  152.8061 N.ar    1  UNL1       -0.2239
     10 C         143.1716  131.8368  153.8367 C.ar    1  UNL1        0.0988
     11 C         143.9164  130.5351  153.8675 C.ar    1  UNL1        0.0206
     12 C         144.7534  130.1781  155.0599 C.ar    1  UNL1        0.0016
     13 C         144.8456  131.1226  156.2215 C.ar    1  UNL1        0.0016
     14 C         144.1008  132.4243  156.1907 C.ar    1  UNL1        0.0188
     15 C         143.2638  132.7813  154.9983 C.ar    1  UNL1        0.0789
     16 C         141.5672  139.2446  158.5905 C.3     1  UNL1        0.0718
     17 N         141.6676  139.0974  160.0799 N.am    1  UNL1       -0.3025
     18 C         143.0138  139.0489  160.7397 C.2     1  UNL1        0.2458
     19 O         144.2596  139.1477  159.9102 O.2     1  UNL1       -0.2701
     20 H         140.8499  139.0326  160.6243 H       1  UNL1        0.1497
     21 C         143.1141  138.9017  162.2292 C.ar    1  UNL1        0.0534
     22 C         142.0483  138.1635  162.9834 C.ar    1  UNL1        0.0054
     23 C         142.1486  138.0162  164.4727 C.ar    1  UNL1        0.0115
     24 C         143.3148  138.6073  165.2079 C.ar    1  UNL1        0.0577
     25 CL        143.4151  138.4601  166.6973 Cl      1  UNL1       -0.0822
     26 C         144.3807  139.3456  164.4538 C.ar    1  UNL1        0.0115
     27 C         144.2804  139.4928  162.9644 C.ar    1  UNL1        0.0054
     28 C         142.2922  141.6834  158.0645 C.3     1  UNL1        0.0017
     29 C         141.2724  140.5862  157.9877 C.3     1  UNL1        0.0196
@<TRIPOS>BOND
     1    28    29    1
     2    29    16    1
     3    16    17    1
     4    17    18   am
     5    18    19    2
     6    18    21    1
     7    21    22   ar
     8    22    23   ar
     9    23    24   ar
    10    24    25    1
    11    24    26   ar
    12    26    27   ar
    13     1    16    1
    14     1     2    1
    15     2     3    1
    16     3     4    1
    17     4     7    1
    18     7     8   ar
    19     8     9   ar
    20     9    10   ar
    21    10    11   ar
    22    11    12   ar
    23    12    13   ar
    24    13    14   ar
    25    14    15   ar
    26     4     5    1
    27     6     5    1
    28    27    21   ar
    29     6     1    1
    30     6     2    1
    31    15     7   ar
    32    15    10   ar
    33    17    20    1
@<TRIPOS>MOLECULE
*****
 29 33 0 0 0
SMALL
GASTEIGER

@<TRIPOS>ATOM
      1 C         141.2093  139.2819  158.7467 C.3     1  UNL1        0.0181
      2 C         142.1349  138.2416  158.1889 C.3     1  UNL1        0.0036
      3 C         142.8080  137.1112  157.4683 C.3     1  UNL1        0.0227
      4 C         141.7940  136.4629  156.5731 C.3     1  UNL1        0.0870
      5 C         140.4942  137.1925  156.7404 C.3     1  UNL1        0.0227
      6 C         140.7049  138.2918  157.7390 C.3     1  UNL1        0.0036
      7 N         142.0371  135.2907  155.6693 N.ar    1  UNL1       -0.3109
      8 C         141.4477  135.0927  154.3042 C.ar    1  UNL1        0.1785
      9 N         141.9586  133.7904  153.7632 N.ar    1  UNL1       -0.2239
     10 C         142.8639  133.1834  154.7938 C.ar    1  UNL1        0.0988
     11 C         143.6503  131.9063  154.8118 C.ar    1  UNL1        0.0206
     12 C         144.4852  131.5564  156.0078 C.ar    1  UNL1        0.0016
     13 C         144.5337  132.4837  157.1858 C.ar    1  UNL1        0.0016
     14 C         143.7473  133.7608  157.1679 C.ar    1  UNL1        0.0188
     15 C         142.9124  134.1107  155.9719 C.ar    1  UNL1        0.0789
     16 C         140.9662  140.4540  159.6504 C.3     1  UNL1        0.0718
     17 N         140.6207  140.2300  161.0928 N.am    1  UNL1       -0.3025
     18 C         139.3094  139.6016  161.4611 C.2     1  UNL1        0.2458
     19 O         138.3436  139.1971  160.3870 O.2     1  UNL1       -0.2701
     20 H         141.2545  140.4955  161.7977 H       1  UNL1        0.1497
     21 C         138.9639  139.3776  162.9035 C.ar    1  UNL1        0.0534
     22 C         138.4856  140.5222  163.7466 C.ar    1  UNL1        0.0054
     23 C         138.1401  140.2982  165.1890 C.ar    1  UNL1        0.0115
     24 C         138.2730  138.9295  165.7882 C.ar    1  UNL1        0.0577
     25 CL        137.9275  138.7055  167.2306 Cl      1  UNL1       -0.0822
     26 C         138.7513  137.7848  164.9451 C.ar    1  UNL1        0.0115
     27 C         139.0968  138.0088  163.5027 C.ar    1  UNL1        0.0054
     28 C         141.0080  142.0899  157.6324 C.3     1  UNL1        0.0017
     29 C         141.0685  141.8504  159.1119 C.3     1  UNL1        0.0196
@<TRIPOS>BOND
     1    28    29    1
     2    29    16    1
     3    16    17    1
     4    17    18   am
     5    18    19    2
     6    18    21    1
     7    21    22   ar
     8    22    23   ar
     9    23    24   ar
    10    24    25    1
    11    24    26   ar
    12    26    27   ar
    13     1    16    1
    14     1     2    1
    15     2     3    1
    16     3     4    1
    17     4     7    1
    18     7     8   ar
    19     8     9   ar
    20     9    10   ar
    21    10    11   ar
    22    11    12   ar
    23    12    13   ar
    24    13    14   ar
    25    14    15   ar
    26     4     5    1
    27     6     5    1
    28    27    21   ar
    29     6     1    1
    30     6     2    1
    31    15     7   ar
    32    15    10   ar
    33    17    20    1
@<TRIPOS>MOLECULE
*****
 29 33 0 0 0
SMALL
GASTEIGER

@<TRIPOS>ATOM
      1 C         142.7012  142.5130  162.1776 C.3     1  UNL1        0.0181
      2 C         142.8163  142.8035  160.7104 C.3     1  UNL1        0.0036
      3 C         143.0692  142.8123  159.2319 C.3     1  UNL1        0.0227
      4 C         143.7520  141.5265  158.8706 C.3     1  UNL1        0.0870
      5 C         143.9211  140.7229  160.1258 C.3     1  UNL1        0.0227
      6 C         143.3428  141.5121  161.2629 C.3     1  UNL1        0.0036
      7 N         144.1889  141.1163  157.4955 N.ar    1  UNL1       -0.3109
      8 C         143.4633  140.1701  156.5855 C.ar    1  UNL1        0.1785
      9 N         144.2542  140.0493  155.3167 N.ar    1  UNL1       -0.2239
     10 C         145.4685  140.9208  155.4425 C.ar    1  UNL1        0.0988
     11 C         146.6058  141.1990  154.5049 C.ar    1  UNL1        0.0206
     12 C         147.7027  142.1367  154.9140 C.ar    1  UNL1        0.0016
     13 C         147.6624  142.7962  156.2606 C.ar    1  UNL1        0.0016
     14 C         146.5251  142.5179  157.1982 C.ar    1  UNL1        0.0188
     15 C         145.4282  141.5802  156.7892 C.ar    1  UNL1        0.0789
     16 C         142.2643  142.9232  163.5525 C.3     1  UNL1        0.0718
     17 N         141.1593  142.1789  164.2416 N.am    1  UNL1       -0.3025
     18 C         141.4112  140.8090  164.7984 C.2     1  UNL1        0.2458
     19 O         142.7680  140.1834  164.6660 O.2     1  UNL1       -0.2701
     20 H         140.2687  142.5894  164.3285 H       1  UNL1        0.1497
     21 C         140.3061  140.0646  165.4875 C.ar    1  UNL1        0.0534
     22 C         139.9558  140.3895  166.9093 C.ar    1  UNL1        0.0054
     23 C         138.8508  139.6452  167.5985 C.ar    1  UNL1        0.0115
     24 C         138.0960  138.5759  166.8657 C.ar    1  UNL1        0.0577
     25 CL        136.9910  137.8316  167.5548 Cl      1  UNL1       -0.0822
     26 C         138.4463  138.2510  165.4438 C.ar    1  UNL1        0.0115
     27 C         139.5513  138.9953  164.7547 C.ar    1  UNL1        0.0054
     28 C         143.7642  145.0419  163.4459 C.3     1  UNL1        0.0017
     29 C         142.9324  144.0779  164.2386 C.3     1  UNL1        0.0196
@<TRIPOS>BOND
     1    28    29    1
     2    29    16    1
     3    16    17    1
     4    17    18   am
     5    18    19    2
     6    18    21    1
     7    21    22   ar
     8    22    23   ar
     9    23    24   ar
    10    24    25    1
    11    24    26   ar
    12    26    27   ar
    13     1    16    1
    14     1     2    1
    15     2     3    1
    16     3     4    1
    17     4     7    1
    18     7     8   ar
    19     8     9   ar
    20     9    10   ar
    21    10    11   ar
    22    11    12   ar
    23    12    13   ar
    24    13    14   ar
    25    14    15   ar
    26     4     5    1
    27     6     5    1
    28    27    21   ar
    29     6     1    1
    30     6     2    1
    31    15     7   ar
    32    15    10   ar
    33    17    20    1
