@<TRIPOS>MOLECULE
*****
 33 35 0 0 0
SMALL
GASTEIGER

@<TRIPOS>ATOM
      1 N         141.9552  141.6857  163.5966 N.pl3   1  UNL1       -0.3046
      2 C         143.3372  142.2689  163.6048 C.3     1  UNL1        0.1081
      3 C         144.0347  142.5634  162.3099 C.3     1  UNL1        0.0938
      4 N         143.3502  142.2747  161.0068 N.3     1  UNL1       -0.2698
      5 C         141.9682  141.6915  160.9986 C.3     1  UNL1        0.0938
      6 C         141.2707  141.3971  162.2935 C.3     1  UNL1        0.1081
      7 C         140.8652  141.9156  167.4057 C.ar    1  UNL1        0.0515
      8 C         139.8627  140.8024  167.4813 C.ar    1  UNL1        0.0148
      9 C         139.5576  139.9837  166.2620 C.ar    1  UNL1        0.0025
     10 C         140.2551  140.2781  164.9671 C.ar    1  UNL1        0.0146
     11 C         141.2577  141.3913  164.8915 C.ar    1  UNL1        0.0492
     12 C         141.5627  142.2100  166.1108 C.ar    1  UNL1        0.0292
     13 C         142.6704  143.2241  170.6888 C.3     1  UNL1        0.0949
     14 C         142.3654  142.4053  169.4695 C.2     1  UNL1        0.2266
     15 O         143.2556  141.2576  169.0949 O.2     1  UNL1       -0.2748
     16 N         141.1702  142.7343  168.6250 N.am    1  UNL1       -0.2839
     17 H         140.5860  143.4876  168.8709 H       1  UNL1        0.1549
     18 C         144.0477  142.5691  159.7119 C.3     1  UNL1        0.0722
     19 C         143.2530  142.7141  158.4480 C.3     1  UNL1        0.0188
     20 C         142.6863  144.0498  158.0674 C.3     1  UNL1        0.0202
     21 C         141.5680  144.6463  158.8695 C.3     1  UNL1        0.0911
     22 N         141.8296  145.1608  160.2540 N.3     1  UNL1       -0.1833
     23 H         142.3621  146.0247  160.1513 H       1  UNL1        0.1484
     24 S         140.6817  145.4660  161.1701 S.O2    1  UNL1        0.0407
     25 O         139.8380  145.8409  159.9879 O.2     1  UNL1       -0.1575
     26 O         141.5254  145.0911  162.3522 O.2     1  UNL1       -0.1575
     27 C         139.5338  145.7712  162.0861 C.3     1  UNL1        0.1688
     28 C         138.8885  144.6691  162.8728 C.3     1  UNL1        0.0253
     29 C         138.8694  144.7292  164.3715 C.3     1  UNL1        0.0018
     30 C         138.2241  143.6271  165.1582 C.3     1  UNL1        0.0001
     31 C         137.5980  142.4648  164.4462 C.3     1  UNL1        0.0000
     32 C         137.6171  142.4045  162.9475 C.3     1  UNL1        0.0001
     33 C         138.2624  143.5067  162.1608 C.3     1  UNL1        0.0018
@<TRIPOS>BOND
     1    13    14    1
     2    14    15    2
     3    14    16   am
     4    16     7    1
     5     7     8   ar
     6     8     9   ar
     7     9    10   ar
     8    10    11   ar
     9    11     1    1
    10     1     2    1
    11     2     3    1
    12     3     4    1
    13     4    18    1
    14    18    19    1
    15    19    20    1
    16    20    21    1
    17    21    22    1
    18    22    24    1
    19    24    25    2
    20    24    26    2
    21    24    27    1
    22    27    28    1
    23    28    29    1
    24    29    30    1
    25    30    31    1
    26    31    32    1
    27    32    33    1
    28     4     5    1
    29     5     6    1
    30    11    12   ar
    31    12     7   ar
    32     6     1    1
    33    33    28    1
    34    16    17    1
    35    22    23    1
@<TRIPOS>MOLECULE
*****
 33 35 0 0 0
SMALL
GASTEIGER

@<TRIPOS>ATOM
      1 N         143.6550  140.9851  163.2134 N.pl3   1  UNL1       -0.3046
      2 C         143.5713  139.9809  162.1023 C.3     1  UNL1        0.1081
      3 C         143.8588  140.3986  160.6906 C.3     1  UNL1        0.0938
      4 N         144.2301  141.8205  160.3900 N.3     1  UNL1       -0.2698
      5 C         144.3138  142.8247  161.5012 C.3     1  UNL1        0.0938
      6 C         144.0263  142.4070  162.9128 C.3     1  UNL1        0.1081
      7 C         142.6902  141.1768  167.0582 C.ar    1  UNL1        0.0515
      8 C         142.7925  139.7321  167.4485 C.ar    1  UNL1        0.0148
      9 C         143.1823  138.7051  166.4271 C.ar    1  UNL1        0.0025
     10 C         143.4698  139.1227  165.0155 C.ar    1  UNL1        0.0146
     11 C         143.3675  140.5674  164.6252 C.ar    1  UNL1        0.0492
     12 C         142.9777  141.5944  165.6465 C.ar    1  UNL1        0.0292
     13 C         140.4736  143.3799  169.5043 C.3     1  UNL1        0.0949
     14 C         140.8634  142.3528  168.4829 C.2     1  UNL1        0.2266
     15 O         139.8161  141.4746  167.8648 O.2     1  UNL1       -0.2748
     16 N         142.3005  142.2039  168.0796 N.am    1  UNL1       -0.2839
     17 H         142.9878  142.7802  168.4852 H       1  UNL1        0.1549
     18 C         144.5176  142.2382  158.9784 C.3     1  UNL1        0.0722
     19 C         143.6108  143.2110  158.2847 C.3     1  UNL1        0.0188
     20 C         142.1283  143.1410  158.5026 C.3     1  UNL1        0.0202
     21 C         141.3591  144.3858  158.8324 C.3     1  UNL1        0.0911
     22 N         141.7058  145.1792  160.0572 N.3     1  UNL1       -0.1833
     23 H         142.0731  146.0742  159.7340 H       1  UNL1        0.1484
     24 S         140.6482  145.4874  161.0754 S.O2    1  UNL1        0.0407
     25 O         141.5699  145.0359  162.1693 O.2     1  UNL1       -0.1575
     26 O         139.7265  145.9389  159.9815 O.2     1  UNL1       -0.1575
     27 C         139.5908  145.7956  162.0936 C.3     1  UNL1        0.1688
     28 C         139.0229  144.6962  162.9415 C.3     1  UNL1        0.0253
     29 C         139.3086  144.6606  164.4135 C.3     1  UNL1        0.0018
     30 C         138.7407  143.5612  165.2614 C.3     1  UNL1        0.0001
     31 C         137.8871  142.4974  164.6372 C.3     1  UNL1        0.0000
     32 C         137.6014  142.5330  163.1650 C.3     1  UNL1        0.0001
     33 C         138.1693  143.6323  162.3172 C.3     1  UNL1        0.0018
@<TRIPOS>BOND
     1    13    14    1
     2    14    15    2
     3    14    16   am
     4    16     7    1
     5     7     8   ar
     6     8     9   ar
     7     9    10   ar
     8    10    11   ar
     9    11     1    1
    10     1     2    1
    11     2     3    1
    12     3     4    1
    13     4    18    1
    14    18    19    1
    15    19    20    1
    16    20    21    1
    17    21    22    1
    18    22    24    1
    19    24    25    2
    20    24    26    2
    21    24    27    1
    22    27    28    1
    23    28    29    1
    24    29    30    1
    25    30    31    1
    26    31    32    1
    27    32    33    1
    28     4     5    1
    29     5     6    1
    30    11    12   ar
    31    12     7   ar
    32     6     1    1
    33    33    28    1
    34    16    17    1
    35    22    23    1
@<TRIPOS>MOLECULE
*****
 33 35 0 0 0
SMALL
GASTEIGER

@<TRIPOS>ATOM
      1 N         140.5331  139.2319  164.2525 N.pl3   1  UNL1       -0.3046
      2 C         141.3441  138.9504  163.0225 C.3     1  UNL1        0.1081
      3 C         140.6775  138.9010  161.6796 C.3     1  UNL1        0.0938
      4 N         139.1999  139.1330  161.5668 N.3     1  UNL1       -0.2698
      5 C         138.3888  139.4145  162.7970 C.3     1  UNL1        0.0938
      6 C         139.0555  139.4639  164.1397 C.3     1  UNL1        0.1081
      7 C         141.1556  139.9482  168.1060 C.ar    1  UNL1        0.0515
      8 C         142.5328  139.3802  168.2811 C.ar    1  UNL1        0.0148
      9 C         143.2434  138.7627  167.1133 C.ar    1  UNL1        0.0025
     10 C         142.5769  138.7133  165.7704 C.ar    1  UNL1        0.0146
     11 C         141.1997  139.2813  165.5954 C.ar    1  UNL1        0.0492
     12 C         140.4891  139.8987  166.7632 C.ar    1  UNL1        0.0292
     13 C         139.7018  142.6747  170.5966 C.3     1  UNL1        0.0949
     14 C         140.4125  142.0572  169.4288 C.2     1  UNL1        0.2266
     15 O         141.0907  142.9314  168.4159 O.2     1  UNL1       -0.2748
     16 N         140.4450  140.5656  169.2738 N.am    1  UNL1       -0.2839
     17 H         139.9998  139.9919  169.9386 H       1  UNL1        0.1549
     18 C         138.5332  139.0836  160.2241 C.3     1  UNL1        0.0722
     19 C         137.8012  140.2857  159.7055 C.3     1  UNL1        0.0188
     20 C         138.5606  141.4019  159.0516 C.3     1  UNL1        0.0202
     21 C         139.2510  142.4335  159.8937 C.3     1  UNL1        0.0911
     22 N         138.4636  143.2497  160.8753 N.3     1  UNL1       -0.1833
     23 H         137.5346  142.8317  160.9276 H       1  UNL1        0.1484
     24 S         138.9504  143.4009  162.2861 S.O2    1  UNL1        0.0407
     25 O         137.8963  144.4378  162.5386 O.2     1  UNL1       -0.1575
     26 O         140.0045  142.3641  162.0336 O.2     1  UNL1       -0.1575
     27 C         139.4371  143.5522  163.6968 C.3     1  UNL1        0.1688
     28 C         140.8967  143.7673  163.9676 C.3     1  UNL1        0.0253
     29 C         141.6467  142.8068  164.8422 C.3     1  UNL1        0.0018
     30 C         143.1063  143.0218  165.1130 C.3     1  UNL1        0.0001
     31 C         143.8159  144.1973  164.5093 C.3     1  UNL1        0.0000
     32 C         143.0659  145.1579  163.6346 C.3     1  UNL1        0.0001
     33 C         141.6063  144.9429  163.3638 C.3     1  UNL1        0.0018
@<TRIPOS>BOND
     1    13    14    1
     2    14    15    2
     3    14    16   am
     4    16     7    1
     5     7     8   ar
     6     8     9   ar
     7     9    10   ar
     8    10    11   ar
     9    11     1    1
    10     1     2    1
    11     2     3    1
    12     3     4    1
    13     4    18    1
    14    18    19    1
    15    19    20    1
    16    20    21    1
    17    21    22    1
    18    22    24    1
    19    24    25    2
    20    24    26    2
    21    24    27    1
    22    27    28    1
    23    28    29    1
    24    29    30    1
    25    30    31    1
    26    31    32    1
    27    32    33    1
    28     4     5    1
    29     5     6    1
    30    11    12   ar
    31    12     7   ar
    32     6     1    1
    33    33    28    1
    34    16    17    1
    35    22    23    1
@<TRIPOS>MOLECULE
*****
 33 35 0 0 0
SMALL
GASTEIGER

@<TRIPOS>ATOM
      1 N         140.1135  139.3817  166.1939 N.pl3   1  UNL1       -0.3046
      2 C         138.8973  138.6899  165.6533 C.3     1  UNL1        0.1081
      3 C         138.8894  138.1797  164.2427 C.3     1  UNL1        0.0938
      4 N         140.0978  138.3615  163.3727 N.3     1  UNL1       -0.2698
      5 C         141.3140  139.0534  163.9133 C.3     1  UNL1        0.0938
      6 C         141.3218  139.5635  165.3239 C.3     1  UNL1        0.1081
      7 C         141.3641  141.0453  169.5730 C.ar    1  UNL1        0.0515
      8 C         140.1372  140.9121  170.4256 C.ar    1  UNL1        0.0148
      9 C         138.9024  140.2688  169.8676 C.ar    1  UNL1        0.0025
     10 C         138.8945  139.7587  168.4571 C.ar    1  UNL1        0.0146
     11 C         140.1214  139.8919  167.6045 C.ar    1  UNL1        0.0492
     12 C         141.3562  140.5352  168.1625 C.ar    1  UNL1        0.0292
     13 C         143.8388  143.7986  171.0032 C.3     1  UNL1        0.0949
     14 C         142.6039  143.1553  170.4452 C.2     1  UNL1        0.2266
     15 O         141.3740  143.9787  170.2014 O.2     1  UNL1       -0.2748
     16 N         142.5990  141.6886  170.1310 N.am    1  UNL1       -0.2839
     17 H         143.4062  141.1482  170.2910 H       1  UNL1        0.1549
     18 C         140.0899  137.8514  161.9621 C.3     1  UNL1        0.0722
     19 C         139.3467  138.6021  160.8973 C.3     1  UNL1        0.0188
     20 C         139.2088  140.0931  160.9881 C.3     1  UNL1        0.0202
     21 C         137.8473  140.7225  160.9763 C.3     1  UNL1        0.0911
     22 N         137.1825  141.0959  162.2679 N.3     1  UNL1       -0.1833
     23 H         137.3065  140.3066  162.9019 H       1  UNL1        0.1484
     24 S         137.6235  142.3219  163.0114 S.O2    1  UNL1        0.0407
     25 O         137.6455  141.5383  164.2903 O.2     1  UNL1       -0.1575
     26 O         137.6014  143.1055  161.7326 O.2     1  UNL1       -0.1575
     27 C         138.0644  143.5477  163.7549 C.3     1  UNL1        0.1688
     28 C         139.5228  143.8872  163.8434 C.3     1  UNL1        0.0253
     29 C         140.0698  145.0520  163.0729 C.3     1  UNL1        0.0018
     30 C         141.5282  145.3915  163.1614 C.3     1  UNL1        0.0001
     31 C         142.4396  144.5661  164.0205 C.3     1  UNL1        0.0000
     32 C         141.8926  143.4012  164.7911 C.3     1  UNL1        0.0001
     33 C         140.4342  143.0617  164.7026 C.3     1  UNL1        0.0018
@<TRIPOS>BOND
     1    13    14    1
     2    14    15    2
     3    14    16   am
     4    16     7    1
     5     7     8   ar
     6     8     9   ar
     7     9    10   ar
     8    10    11   ar
     9    11     1    1
    10     1     2    1
    11     2     3    1
    12     3     4    1
    13     4    18    1
    14    18    19    1
    15    19    20    1
    16    20    21    1
    17    21    22    1
    18    22    24    1
    19    24    25    2
    20    24    26    2
    21    24    27    1
    22    27    28    1
    23    28    29    1
    24    29    30    1
    25    30    31    1
    26    31    32    1
    27    32    33    1
    28     4     5    1
    29     5     6    1
    30    11    12   ar
    31    12     7   ar
    32     6     1    1
    33    33    28    1
    34    16    17    1
    35    22    23    1
@<TRIPOS>MOLECULE
*****
 33 35 0 0 0
SMALL
GASTEIGER

@<TRIPOS>ATOM
      1 N         141.8348  141.9797  163.9951 N.pl3   1  UNL1       -0.3046
      2 C         142.7028  142.0511  162.7739 C.3     1  UNL1        0.1081
      3 C         142.3834  143.0299  161.6829 C.3     1  UNL1        0.0938
      4 N         141.1960  143.9371  161.8133 N.3     1  UNL1       -0.2698
      5 C         140.3280  143.8656  163.0346 C.3     1  UNL1        0.0938
      6 C         140.6474  142.8869  164.1255 C.3     1  UNL1        0.1081
      7 C         142.3714  140.4411  167.6138 C.ar    1  UNL1        0.0515
      8 C         142.7931  139.0437  167.2680 C.ar    1  UNL1        0.0148
      9 C         142.8953  138.6250  165.8313 C.ar    1  UNL1        0.0025
     10 C         142.5759  139.6036  164.7403 C.ar    1  UNL1        0.0146
     11 C         142.1543  141.0010  165.0861 C.ar    1  UNL1        0.0492
     12 C         142.0520  141.4197  166.5229 C.ar    1  UNL1        0.0292
     13 C         140.9486  140.9237  171.2870 C.3     1  UNL1        0.0949
     14 C         141.0508  140.5050  169.8503 C.2     1  UNL1        0.2266
     15 O         139.9346  139.7315  169.2133 O.2     1  UNL1       -0.2748
     16 N         142.2692  140.8598  169.0506 N.am    1  UNL1       -0.2839
     17 H         143.0018  141.3675  169.4686 H       1  UNL1        0.1549
     18 C         140.8765  144.9158  160.7224 C.3     1  UNL1        0.0722
     19 C         140.9227  144.4809  159.2876 C.3     1  UNL1        0.0188
     20 C         139.7353  143.8029  158.6707 C.3     1  UNL1        0.0202
     21 C         138.9038  142.8577  159.4864 C.3     1  UNL1        0.0911
     22 N         139.5544  141.7072  160.1955 N.3     1  UNL1       -0.1833
     23 H         140.2355  142.1065  160.8413 H       1  UNL1        0.1484
     24 S         138.7192  140.7451  160.9873 S.O2    1  UNL1        0.0407
     25 O         139.7091  139.6539  160.7055 O.2     1  UNL1       -0.1575
     26 O         137.7293  141.8362  161.2691 O.2     1  UNL1       -0.1575
     27 C         137.8841  139.7830  161.7790 C.3     1  UNL1        0.1688
     28 C         138.2942  139.4031  163.1709 C.3     1  UNL1        0.0253
     29 C         138.8543  138.0382  163.4416 C.3     1  UNL1        0.0018
     30 C         139.2644  137.6583  164.8335 C.3     1  UNL1        0.0001
     31 C         139.1145  138.6433  165.9548 C.3     1  UNL1        0.0000
     32 C         138.5544  140.0082  165.6841 C.3     1  UNL1        0.0001
     33 C         138.1442  140.3881  164.2922 C.3     1  UNL1        0.0018
@<TRIPOS>BOND
     1    13    14    1
     2    14    15    2
     3    14    16   am
     4    16     7    1
     5     7     8   ar
     6     8     9   ar
     7     9    10   ar
     8    10    11   ar
     9    11     1    1
    10     1     2    1
    11     2     3    1
    12     3     4    1
    13     4    18    1
    14    18    19    1
    15    19    20    1
    16    20    21    1
    17    21    22    1
    18    22    24    1
    19    24    25    2
    20    24    26    2
    21    24    27    1
    22    27    28    1
    23    28    29    1
    24    29    30    1
    25    30    31    1
    26    31    32    1
    27    32    33    1
    28     4     5    1
    29     5     6    1
    30    11    12   ar
    31    12     7   ar
    32     6     1    1
    33    33    28    1
    34    16    17    1
    35    22    23    1
@<TRIPOS>MOLECULE
*****
 33 35 0 0 0
SMALL
GASTEIGER

@<TRIPOS>ATOM
      1 N         142.4037  140.9408  163.2756 N.pl3   1  UNL1       -0.3046
      2 C         141.7886  140.0078  162.2750 C.3     1  UNL1        0.1081
      3 C         141.6922  140.4115  160.8335 C.3     1  UNL1        0.0938
      4 N         142.2109  141.7482  160.3927 N.3     1  UNL1       -0.2698
      5 C         142.8260  142.6811  161.3934 C.3     1  UNL1        0.0938
      6 C         142.9224  142.2774  162.8348 C.3     1  UNL1        0.1081
      7 C         142.2846  141.1271  167.2381 C.ar    1  UNL1        0.0515
      8 C         142.6930  139.7299  167.5999 C.ar    1  UNL1        0.0148
      9 C         143.0050  138.7363  166.5204 C.ar    1  UNL1        0.0025
     10 C         142.9086  139.1399  165.0790 C.ar    1  UNL1        0.0146
     11 C         142.5002  140.5371  164.7171 C.ar    1  UNL1        0.0492
     12 C         142.1882  141.5307  165.7966 C.ar    1  UNL1        0.0292
     13 C         140.3439  143.0552  170.1131 C.3     1  UNL1        0.0949
     14 C         140.6559  142.0616  169.0336 C.2     1  UNL1        0.2266
     15 O         139.6510  141.0089  168.6700 O.2     1  UNL1       -0.2748
     16 N         141.9726  142.1207  168.3176 N.am    1  UNL1       -0.2839
     17 H         142.6321  142.8116  168.5563 H       1  UNL1        0.1549
     18 C         142.1145  142.1519  158.9513 C.3     1  UNL1        0.0722
     19 C         140.7993  142.0672  158.2351 C.3     1  UNL1        0.0188
     20 C         139.6959  143.0241  158.5773 C.3     1  UNL1        0.0202
     21 C         138.7515  142.7096  159.6993 C.3     1  UNL1        0.0911
     22 N         139.2016  142.8581  161.1224 N.3     1  UNL1       -0.1833
     23 H         139.1820  143.8555  161.3349 H       1  UNL1        0.1484
     24 S         138.4520  142.1663  162.2223 S.O2    1  UNL1        0.0407
     25 O         137.4988  141.5964  161.2141 O.2     1  UNL1       -0.1575
     26 O         139.4052  142.7362  163.2305 O.2     1  UNL1       -0.1575
     27 C         137.7024  141.4745  163.3220 C.3     1  UNL1        0.1688
     28 C         138.2367  140.2013  163.9082 C.3     1  UNL1        0.0253
     29 C         138.5311  140.1173  165.3766 C.3     1  UNL1        0.0018
     30 C         139.0653  138.8442  165.9628 C.3     1  UNL1        0.0001
     31 C         139.3052  137.6550  165.0806 C.3     1  UNL1        0.0000
     32 C         139.0108  137.7389  163.6122 C.3     1  UNL1        0.0001
     33 C         138.4765  139.0121  163.0259 C.3     1  UNL1        0.0018
@<TRIPOS>BOND
     1    13    14    1
     2    14    15    2
     3    14    16   am
     4    16     7    1
     5     7     8   ar
     6     8     9   ar
     7     9    10   ar
     8    10    11   ar
     9    11     1    1
    10     1     2    1
    11     2     3    1
    12     3     4    1
    13     4    18    1
    14    18    19    1
    15    19    20    1
    16    20    21    1
    17    21    22    1
    18    22    24    1
    19    24    25    2
    20    24    26    2
    21    24    27    1
    22    27    28    1
    23    28    29    1
    24    29    30    1
    25    30    31    1
    26    31    32    1
    27    32    33    1
    28     4     5    1
    29     5     6    1
    30    11    12   ar
    31    12     7   ar
    32     6     1    1
    33    33    28    1
    34    16    17    1
    35    22    23    1
@<TRIPOS>MOLECULE
*****
 33 35 0 0 0
SMALL
GASTEIGER

@<TRIPOS>ATOM
      1 N         139.6841  142.6428  164.5220 N.pl3   1  UNL1       -0.3046
      2 C         140.8236  143.6146  164.6064 C.3     1  UNL1        0.1081
      3 C         140.9770  144.6828  163.5645 C.3     1  UNL1        0.0938
      4 N         139.9910  144.7791  162.4383 N.3     1  UNL1       -0.2698
      5 C         138.8514  143.8073  162.3540 C.3     1  UNL1        0.0938
      6 C         138.6980  142.7392  163.3958 C.3     1  UNL1        0.1081
      7 C         140.1267  140.6090  167.9011 C.ar    1  UNL1        0.0515
      8 C         139.2238  139.4384  167.6477 C.ar    1  UNL1        0.0148
      9 C         138.4743  139.3358  166.3524 C.ar    1  UNL1        0.0025
     10 C         138.6277  140.4039  165.3105 C.ar    1  UNL1        0.0146
     11 C         139.5306  141.5746  165.5639 C.ar    1  UNL1        0.0492
     12 C         140.2801  141.6771  166.8592 C.ar    1  UNL1        0.0292
     13 C         142.9473  140.1226  170.6501 C.3     1  UNL1        0.0949
     14 C         142.1978  140.0201  169.3549 C.2     1  UNL1        0.2266
     15 O         142.7700  139.2261  168.2181 O.2     1  UNL1       -0.2748
     16 N         140.8762  140.7115  169.1964 N.am    1  UNL1       -0.2839
     17 H         140.5007  141.2326  169.9425 H       1  UNL1        0.1549
     18 C         140.1444  145.8473  161.3964 C.3     1  UNL1        0.0722
     19 C         140.2148  145.4747  159.9452 C.3     1  UNL1        0.0188
     20 C         141.4851  144.9171  159.3747 C.3     1  UNL1        0.0202
     21 C         141.7696  143.4476  159.4726 C.3     1  UNL1        0.0911
     22 N         141.9207  142.8009  160.8175 N.3     1  UNL1       -0.1833
     23 H         141.0693  143.0064  161.3404 H       1  UNL1        0.1484
     24 S         142.1434  141.3208  160.9173 S.O2    1  UNL1        0.0407
     25 O         140.6605  141.1013  160.9710 O.2     1  UNL1       -0.1575
     26 O         143.6262  141.5403  160.8636 O.2     1  UNL1       -0.1575
     27 C         142.3661  139.8408  161.0171 C.3     1  UNL1        0.1688
     28 C         142.0503  139.1193  162.2937 C.3     1  UNL1        0.0253
     29 C         141.3439  137.7967  162.2527 C.3     1  UNL1        0.0018
     30 C         141.0281  137.0752  163.5293 C.3     1  UNL1        0.0001
     31 C         141.4189  137.6762  164.8469 C.3     1  UNL1        0.0000
     32 C         142.1254  138.9988  164.8879 C.3     1  UNL1        0.0001
     33 C         142.4411  139.7203  163.6114 C.3     1  UNL1        0.0018
@<TRIPOS>BOND
     1    13    14    1
     2    14    15    2
     3    14    16   am
     4    16     7    1
     5     7     8   ar
     6     8     9   ar
     7     9    10   ar
     8    10    11   ar
     9    11     1    1
    10     1     2    1
    11     2     3    1
    12     3     4    1
    13     4    18    1
    14    18    19    1
    15    19    20    1
    16    20    21    1
    17    21    22    1
    18    22    24    1
    19    24    25    2
    20    24    26    2
    21    24    27    1
    22    27    28    1
    23    28    29    1
    24    29    30    1
    25    30    31    1
    26    31    32    1
    27    32    33    1
    28     4     5    1
    29     5     6    1
    30    11    12   ar
    31    12     7   ar
    32     6     1    1
    33    33    28    1
    34    16    17    1
    35    22    23    1
@<TRIPOS>MOLECULE
*****
 33 35 0 0 0
SMALL
GASTEIGER

@<TRIPOS>ATOM
      1 N         142.2038  141.9816  165.3397 N.pl3   1  UNL1       -0.3046
      2 C         143.5426  142.6551  165.4014 C.3     1  UNL1        0.1081
      3 C         144.3655  142.8038  164.1560 C.3     1  UNL1        0.0938
      4 N         143.8494  142.2790  162.8490 N.3     1  UNL1       -0.2698
      5 C         142.5104  141.6054  162.7874 C.3     1  UNL1        0.0938
      6 C         141.6877  141.4568  164.0327 C.3     1  UNL1        0.1081
      7 C         139.6928  140.4733  168.0174 C.ar    1  UNL1        0.0515
      8 C         139.7353  141.5354  169.0757 C.ar    1  UNL1        0.0148
      9 C         140.6007  142.7462  168.8887 C.ar    1  UNL1        0.0025
     10 C         141.4235  142.8949  167.6434 C.ar    1  UNL1        0.0146
     11 C         141.3809  141.8329  166.5851 C.ar    1  UNL1        0.0492
     12 C         140.5156  140.6220  166.7721 C.ar    1  UNL1        0.0292
     13 C         137.1032  137.5620  167.2632 C.3     1  UNL1        0.0949
     14 C         137.9686  138.7729  167.0762 C.2     1  UNL1        0.2266
     15 O         137.9751  139.4942  165.7610 O.2     1  UNL1       -0.2748
     16 N         138.8274  139.2624  168.2044 N.am    1  UNL1       -0.2839
     17 H         138.8230  138.7890  169.0676 H       1  UNL1        0.1549
     18 C         144.6721  142.4277  161.6037 C.3     1  UNL1        0.0722
     19 C         144.1430  141.9299  160.2913 C.3     1  UNL1        0.0188
     20 C         143.5576  142.8956  159.3039 C.3     1  UNL1        0.0202
     21 C         142.3343  143.6859  159.6626 C.3     1  UNL1        0.0911
     22 N         142.3973  144.7103  160.7565 N.3     1  UNL1       -0.1833
     23 H         142.7816  145.5597  160.3427 H       1  UNL1        0.1484
     24 S         141.1472  145.1097  161.4829 S.O2    1  UNL1        0.0407
     25 O         140.3864  145.0791  160.1905 O.2     1  UNL1       -0.1575
     26 O         141.9079  145.1404  162.7753 O.2     1  UNL1       -0.1575
     27 C         139.8971  145.5091  162.2093 C.3     1  UNL1        0.1688
     28 C         139.1351  144.4920  163.0060 C.3     1  UNL1        0.0253
     29 C         138.3167  143.4492  162.3040 C.3     1  UNL1        0.0018
     30 C         137.5547  142.4320  163.1006 C.3     1  UNL1        0.0001
     31 C         137.6110  142.4576  164.5993 C.3     1  UNL1        0.0000
     32 C         138.4294  143.5004  165.3014 C.3     1  UNL1        0.0001
     33 C         139.1914  144.5176  164.5048 C.3     1  UNL1        0.0018
@<TRIPOS>BOND
     1    13    14    1
     2    14    15    2
     3    14    16   am
     4    16     7    1
     5     7     8   ar
     6     8     9   ar
     7     9    10   ar
     8    10    11   ar
     9    11     1    1
    10     1     2    1
    11     2     3    1
    12     3     4    1
    13     4    18    1
    14    18    19    1
    15    19    20    1
    16    20    21    1
    17    21    22    1
    18    22    24    1
    19    24    25    2
    20    24    26    2
    21    24    27    1
    22    27    28    1
    23    28    29    1
    24    29    30    1
    25    30    31    1
    26    31    32    1
    27    32    33    1
    28     4     5    1
    29     5     6    1
    30    11    12   ar
    31    12     7   ar
    32     6     1    1
    33    33    28    1
    34    16    17    1
    35    22    23    1
@<TRIPOS>MOLECULE
*****
 33 35 0 0 0
SMALL
GASTEIGER

@<TRIPOS>ATOM
      1 N         139.6839  141.8792  164.2311 N.pl3   1  UNL1       -0.3046
      2 C         139.2821  143.2883  163.9100 C.3     1  UNL1        0.1081
      3 C         139.2730  143.7596  162.4859 C.3     1  UNL1        0.0938
      4 N         139.6658  142.8219  161.3830 N.3     1  UNL1       -0.2698
      5 C         140.0676  141.4128  161.7042 C.3     1  UNL1        0.0938
      6 C         140.0767  140.9415  163.1282 C.3     1  UNL1        0.1081
      7 C         140.3400  141.7789  168.1438 C.ar    1  UNL1        0.0515
      8 C         139.7112  140.4653  168.5031 C.ar    1  UNL1        0.0148
      9 C         139.0734  139.6230  167.4383 C.ar    1  UNL1        0.0025
     10 C         139.0643  140.0943  166.0143 C.ar    1  UNL1        0.0146
     11 C         139.6930  141.4079  165.6551 C.ar    1  UNL1        0.0492
     12 C         140.3308  142.2502  166.7198 C.ar    1  UNL1        0.0292
     13 C         143.0431  143.2223  170.6656 C.3     1  UNL1        0.0949
     14 C         142.4053  142.3800  169.6009 C.2     1  UNL1        0.2266
     15 O         143.1951  141.2963  168.9285 O.2     1  UNL1       -0.2748
     16 N         140.9778  142.6212  169.2086 N.am    1  UNL1       -0.2839
     17 H         140.4595  143.3324  169.6499 H       1  UNL1        0.1549
     18 C         139.6567  143.2932  159.9591 C.3     1  UNL1        0.0722
     19 C         140.5845  144.3893  159.5260 C.3     1  UNL1        0.0188
     20 C         142.0013  144.0685  159.1516 C.3     1  UNL1        0.0202
     21 C         142.8730  143.3022  160.1017 C.3     1  UNL1        0.0911
     22 N         143.2163  143.8849  161.4406 N.3     1  UNL1       -0.1833
     23 H         142.3466  144.2378  161.8399 H       1  UNL1        0.1484
     24 S         143.8575  143.0262  162.4902 S.O2    1  UNL1        0.0407
     25 O         144.9267  142.6324  161.5147 O.2     1  UNL1       -0.1575
     26 O         142.7883  143.4199  163.4657 O.2     1  UNL1       -0.1575
     27 C         144.4987  142.1675  163.5396 C.3     1  UNL1        0.1688
     28 C         143.8310  140.8992  163.9820 C.3     1  UNL1        0.0253
     29 C         143.4218  140.7273  165.4148 C.3     1  UNL1        0.0018
     30 C         142.7540  139.4591  165.8571 C.3     1  UNL1        0.0001
     31 C         142.4954  138.3628  164.8666 C.3     1  UNL1        0.0000
     32 C         142.9046  138.5346  163.4337 C.3     1  UNL1        0.0001
     33 C         143.5724  139.8029  162.9914 C.3     1  UNL1        0.0018
@<TRIPOS>BOND
     1    13    14    1
     2    14    15    2
     3    14    16   am
     4    16     7    1
     5     7     8   ar
     6     8     9   ar
     7     9    10   ar
     8    10    11   ar
     9    11     1    1
    10     1     2    1
    11     2     3    1
    12     3     4    1
    13     4    18    1
    14    18    19    1
    15    19    20    1
    16    20    21    1
    17    21    22    1
    18    22    24    1
    19    24    25    2
    20    24    26    2
    21    24    27    1
    22    27    28    1
    23    28    29    1
    24    29    30    1
    25    30    31    1
    26    31    32    1
    27    32    33    1
    28     4     5    1
    29     5     6    1
    30    11    12   ar
    31    12     7   ar
    32     6     1    1
    33    33    28    1
    34    16    17    1
    35    22    23    1
