@<TRIPOS>MOLECULE
*****
 40 46 0 0 0
SMALL
GASTEIGER

@<TRIPOS>ATOM
      1 C         138.5216  141.7365  164.4539 C.3     1  UNL1        0.0955
      2 C         138.1445  141.7337  163.0020 C.3     1  UNL1        0.0287
      3 C         138.1350  143.0180  162.2271 C.3     1  UNL1        0.0193
      4 C         138.5026  144.3051  162.9039 C.3     1  UNL1        0.0700
      5 C         138.8797  144.3079  164.3558 C.3     1  UNL1        0.0193
      6 C         138.8892  143.0237  165.1308 C.3     1  UNL1        0.0287
      7 C         138.5223  143.6265  163.3699 C.3     1  UNL1        0.1562
      8 O         138.5309  142.4652  164.0706 O.3     1  UNL1       -0.3571
      9 N         138.4930  145.5894  162.1290 N.3     1  UNL1       -0.2938
     10 H         138.1338  146.3091  162.7562 H       1  UNL1        0.1235
     11 C         139.7675  146.1217  161.5439 C.3     1  UNL1        0.0966
     12 C         140.8759  145.1794  161.1782 C.ar    1  UNL1        0.0083
     13 C         140.8994  144.5396  159.8217 C.ar    1  UNL1        0.0380
     14 C         142.0078  143.5973  159.4561 C.ar    1  UNL1        0.1730
     15 C         143.0926  143.2949  160.4469 C.ar    1  UNL1        0.1836
     16 C         143.0691  143.9348  161.8033 C.ar    1  UNL1        0.1048
     17 CL        144.1539  143.6324  162.7941 Cl      1  UNL1       -0.0781
     18 C         141.9607  144.8770  162.1690 C.ar    1  UNL1        0.0687
     19 CL        141.9372  145.5168  163.5256 Cl      1  UNL1       -0.0815
     20 O         144.2010  142.3527  160.0812 O.3     1  UNL1       -0.4675
     21 C         144.2245  141.7129  158.7246 C.3     1  UNL1        0.2527
     22 C         143.1397  142.0153  157.7339 C.3     1  UNL1        0.2526
     23 O         142.0313  142.9576  158.0996 O.3     1  UNL1       -0.4684
     24 C         138.5312  140.4523  165.2288 C.3     1  UNL1        0.0604
     25 O         138.8760  140.9107  170.3233 O.2     1  UNL1       -0.2670
     26 C         140.0941  140.2869  169.7092 C.ar    1  UNL1        0.2611
     27 C         141.2440  139.8727  170.5788 C.ar    1  UNL1        0.0623
     28 C         142.4620  139.2489  169.9647 C.ar    1  UNL1        0.0254
     29 C         142.5302  139.0392  168.4810 C.ar    1  UNL1        0.0972
     30 N         143.6052  138.4485  167.6059 N.ar    1  UNL1       -0.2400
     31 C         143.5302  138.3026  166.1149 C.ar    1  UNL1        0.1282
     32 C         142.3090  138.7649  165.3767 C.ar    1  UNL1        0.1588
     33 F         142.2339  138.6190  163.8857 F       1  UNL1       -0.2027
     34 C         141.1628  139.3729  166.1294 C.ar    1  UNL1        0.0500
     35 C         141.3804  139.4534  167.6114 C.ar    1  UNL1        0.0806
     36 N         140.1623  140.0772  168.2255 N.ar    1  UNL1       -0.2915
     37 C         139.1920  140.3823  167.1230 C.3     1  UNL1        0.1402
     38 C         139.8103  139.9471  165.8276 C.3     1  UNL1        0.1335
     39 O         140.1613  139.6174  164.4070 O.3     1  UNL1       -0.3806
     40 H         139.4303  139.8771  163.8247 H       1  UNL1        0.2108
@<TRIPOS>BOND
     1    25    26    2
     2    26    27   ar
     3    27    28   ar
     4    28    29   ar
     5    29    30   ar
     6    30    31   ar
     7    31    32   ar
     8    32    33    1
     9    32    34   ar
    10    34    35   ar
    11    35    36   ar
    12    36    37    1
    13    37    38    1
    14    38    39    1
    15    38    24    1
    16    24     1    1
    17     1     2    1
    18     2     3    1
    19     3     4    1
    20     4     9    1
    21     9    11    1
    22    11    12    1
    23    12    13   ar
    24    13    14   ar
    25    14    15   ar
    26    15    16   ar
    27    16    17    1
    28    16    18   ar
    29    18    19    1
    30    15    20    1
    31    20    21    1
    32    21    22    1
    33    22    23    1
    34     4     5    1
    35     5     6    1
    36     4     7    1
    37     7     8    1
    38    36    26   ar
    39     6     1    1
    40    35    29   ar
    41     8     1    1
    42    38    34    1
    43    18    12   ar
    44    23    14    1
    45    39    40    1
    46     9    10    1
@<TRIPOS>MOLECULE
*****
 40 46 0 0 0
SMALL
GASTEIGER

@<TRIPOS>ATOM
      1 C         138.4428  141.8792  164.4376 C.3     1  UNL1        0.0955
      2 C         138.0095  141.9063  163.0017 C.3     1  UNL1        0.0287
      3 C         138.0031  143.2012  162.2446 C.3     1  UNL1        0.0193
      4 C         138.4299  144.4690  162.9233 C.3     1  UNL1        0.0700
      5 C         138.8632  144.4418  164.3591 C.3     1  UNL1        0.0193
      6 C         138.8697  143.1469  165.1163 C.3     1  UNL1        0.0287
      7 C         138.4502  143.7835  163.3792 C.3     1  UNL1        0.1562
      8 O         138.4560  142.6127  164.0638 O.3     1  UNL1       -0.3571
      9 N         138.4235  145.7639  162.1662 N.3     1  UNL1       -0.2938
     10 H         138.1346  146.4880  162.8238 H       1  UNL1        0.1235
     11 C         139.6788  146.2534  161.5070 C.3     1  UNL1        0.0966
     12 C         140.8210  145.3092  161.2742 C.ar    1  UNL1        0.0083
     13 C         141.7361  144.9456  162.4056 C.ar    1  UNL1        0.0380
     14 C         142.8782  144.0014  162.1727 C.ar    1  UNL1        0.1730
     15 C         143.1051  143.4209  160.8084 C.ar    1  UNL1        0.1836
     16 C         142.1899  143.7846  159.6769 C.ar    1  UNL1        0.1048
     17 CL        142.4168  143.2040  158.3126 Cl      1  UNL1       -0.0781
     18 C         141.0479  144.7287  159.9098 C.ar    1  UNL1        0.0687
     19 CL        140.1327  145.0923  158.7783 Cl      1  UNL1       -0.0815
     20 O         144.2472  142.4768  160.5754 O.3     1  UNL1       -0.4675
     21 C         145.1624  142.1132  161.7070 C.3     1  UNL1        0.2527
     22 C         144.9354  142.6937  163.0713 C.3     1  UNL1        0.2526
     23 O         143.7933  143.6379  163.3042 O.3     1  UNL1       -0.4684
     24 C         138.4492  140.5843  165.1947 C.3     1  UNL1        0.0604
     25 O         138.8531  140.9709  170.2908 O.2     1  UNL1       -0.2670
     26 C         140.0588  140.3446  169.6551 C.ar    1  UNL1        0.2611
     27 C         141.2142  139.9086  170.5065 C.ar    1  UNL1        0.0623
     28 C         142.4200  139.2823  169.8708 C.ar    1  UNL1        0.0254
     29 C         142.4703  139.0921  168.3838 C.ar    1  UNL1        0.0972
     30 N         143.5304  138.5038  167.4892 N.ar    1  UNL1       -0.2400
     31 C         143.4380  138.3788  165.9973 C.ar    1  UNL1        0.1282
     32 C         142.2131  138.8617  165.2787 C.ar    1  UNL1        0.1588
     33 F         142.1206  138.7367  163.7868 F       1  UNL1       -0.2027
     34 C         141.0807  139.4697  166.0520 C.ar    1  UNL1        0.0500
     35 C         141.3149  139.5282  167.5325 C.ar    1  UNL1        0.0806
     36 N         140.1092  140.1544  168.1681 N.ar    1  UNL1       -0.2915
     37 C         139.1298  140.4829  167.0805 C.3     1  UNL1        0.1402
     38 C         139.7302  140.0597  165.7727 C.3     1  UNL1        0.1335
     39 O         140.0628  139.7462  164.3440 O.3     1  UNL1       -0.3806
     40 H         139.3280  140.0202  163.7733 H       1  UNL1        0.2108
@<TRIPOS>BOND
     1    25    26    2
     2    26    27   ar
     3    27    28   ar
     4    28    29   ar
     5    29    30   ar
     6    30    31   ar
     7    31    32   ar
     8    32    33    1
     9    32    34   ar
    10    34    35   ar
    11    35    36   ar
    12    36    37    1
    13    37    38    1
    14    38    39    1
    15    38    24    1
    16    24     1    1
    17     1     2    1
    18     2     3    1
    19     3     4    1
    20     4     9    1
    21     9    11    1
    22    11    12    1
    23    12    13   ar
    24    13    14   ar
    25    14    15   ar
    26    15    16   ar
    27    16    17    1
    28    16    18   ar
    29    18    19    1
    30    15    20    1
    31    20    21    1
    32    21    22    1
    33    22    23    1
    34     4     5    1
    35     5     6    1
    36     4     7    1
    37     7     8    1
    38    36    26   ar
    39     6     1    1
    40    35    29   ar
    41     8     1    1
    42    38    34    1
    43    18    12   ar
    44    23    14    1
    45    39    40    1
    46     9    10    1
@<TRIPOS>MOLECULE
*****
 40 46 0 0 0
SMALL
GASTEIGER

@<TRIPOS>ATOM
      1 C         138.2717  141.7164  164.6816 C.3     1  UNL1        0.0955
      2 C         139.1752  142.6953  165.3713 C.3     1  UNL1        0.0287
      3 C         140.0969  142.2280  166.4585 C.3     1  UNL1        0.0193
      4 C         140.1152  140.7818  166.8561 C.3     1  UNL1        0.0700
      5 C         139.2118  139.8029  166.1664 C.3     1  UNL1        0.0193
      6 C         138.2900  140.2702  165.0792 C.3     1  UNL1        0.0287
      7 C         139.5929  140.9907  166.2547 C.3     1  UNL1        0.1562
      8 O         138.7595  141.4133  165.2716 O.3     1  UNL1       -0.3571
      9 N         141.0369  140.3145  167.9433 N.3     1  UNL1       -0.2938
     10 H         140.5971  139.5003  168.3724 H       1  UNL1        0.1235
     11 C         142.4466  139.9219  167.6141 C.3     1  UNL1        0.0966
     12 C         142.9649  140.0896  166.2164 C.ar    1  UNL1        0.0083
     13 C         142.8442  138.9646  165.2317 C.ar    1  UNL1        0.0380
     14 C         143.3625  139.1323  163.8341 C.ar    1  UNL1        0.1730
     15 C         144.0015  140.4250  163.4213 C.ar    1  UNL1        0.1836
     16 C         144.1223  141.5500  164.4060 C.ar    1  UNL1        0.1048
     17 CL        144.7613  142.8428  163.9932 Cl      1  UNL1       -0.0781
     18 C         143.6040  141.3823  165.8036 C.ar    1  UNL1        0.0687
     19 CL        143.7247  142.5075  166.7883 Cl      1  UNL1       -0.0815
     20 O         144.5198  140.5928  162.0237 O.3     1  UNL1       -0.4675
     21 C         144.3991  139.4676  161.0390 C.3     1  UNL1        0.2527
     22 C         143.7600  138.1750  161.4519 C.3     1  UNL1        0.2526
     23 O         143.2417  138.0072  162.8494 O.3     1  UNL1       -0.4684
     24 C         137.3500  142.1837  163.5943 C.3     1  UNL1        0.0604
     25 O         140.2241  146.1135  161.9884 O.2     1  UNL1       -0.2670
     26 C         139.9751  145.0951  160.9155 C.ar    1  UNL1        0.2611
     27 C         140.5501  145.2942  159.5445 C.ar    1  UNL1        0.0623
     28 C         140.3012  144.2759  158.4717 C.ar    1  UNL1        0.0254
     29 C         139.4772  143.0585  158.7698 C.ar    1  UNL1        0.0972
     30 N         139.0713  141.8930  157.9054 N.ar    1  UNL1       -0.2400
     31 C         138.2321  140.7317  158.3494 C.ar    1  UNL1        0.1282
     32 C         137.7250  140.6687  159.7597 C.ar    1  UNL1        0.1588
     33 F         136.8859  139.5074  160.2037 F       1  UNL1       -0.2027
     34 C         138.0571  141.7669  160.7259 C.ar    1  UNL1        0.0500
     35 C         138.9022  142.8594  160.1408 C.ar    1  UNL1        0.0806
     36 N         139.1511  143.8777  161.2137 N.ar    1  UNL1       -0.2915
     37 C         138.4599  143.4146  162.4618 C.3     1  UNL1        0.1402
     38 C         137.7837  142.1101  162.1603 C.3     1  UNL1        0.1335
     39 O         137.0168  140.8209  162.1586 O.3     1  UNL1       -0.3806
     40 H         136.6348  140.6708  163.0375 H       1  UNL1        0.2108
@<TRIPOS>BOND
     1    25    26    2
     2    26    27   ar
     3    27    28   ar
     4    28    29   ar
     5    29    30   ar
     6    30    31   ar
     7    31    32   ar
     8    32    33    1
     9    32    34   ar
    10    34    35   ar
    11    35    36   ar
    12    36    37    1
    13    37    38    1
    14    38    39    1
    15    38    24    1
    16    24     1    1
    17     1     2    1
    18     2     3    1
    19     3     4    1
    20     4     9    1
    21     9    11    1
    22    11    12    1
    23    12    13   ar
    24    13    14   ar
    25    14    15   ar
    26    15    16   ar
    27    16    17    1
    28    16    18   ar
    29    18    19    1
    30    15    20    1
    31    20    21    1
    32    21    22    1
    33    22    23    1
    34     4     5    1
    35     5     6    1
    36     4     7    1
    37     7     8    1
    38    36    26   ar
    39     6     1    1
    40    35    29   ar
    41     8     1    1
    42    38    34    1
    43    18    12   ar
    44    23    14    1
    45    39    40    1
    46     9    10    1
@<TRIPOS>MOLECULE
*****
 40 46 0 0 0
SMALL
GASTEIGER

@<TRIPOS>ATOM
      1 C         138.6626  139.0007  164.0669 C.3     1  UNL1        0.0955
      2 C         138.8009  137.9274  163.0280 C.3     1  UNL1        0.0287
      3 C         138.3527  138.1844  161.6198 C.3     1  UNL1        0.0193
      4 C         137.7662  139.5146  161.2504 C.3     1  UNL1        0.0700
      5 C         137.6279  140.5879  162.2892 C.3     1  UNL1        0.0193
      6 C         138.0761  140.3309  163.6974 C.3     1  UNL1        0.0287
      7 C         137.9977  139.4205  162.0350 C.3     1  UNL1        0.1562
      8 O         138.4029  139.1881  163.3083 O.3     1  UNL1       -0.3571
      9 N         137.3180  139.7717  159.8422 N.3     1  UNL1       -0.2938
     10 H         136.5319  140.4194  159.8969 H       1  UNL1        0.1235
     11 C         138.2793  140.3410  158.8413 C.3     1  UNL1        0.0966
     12 C         139.5335  139.5937  158.4968 C.ar    1  UNL1        0.0083
     13 C         139.4924  138.4839  157.4885 C.ar    1  UNL1        0.0380
     14 C         140.7466  137.7367  157.1440 C.ar    1  UNL1        0.1730
     15 C         142.0419  138.0992  157.8079 C.ar    1  UNL1        0.1836
     16 C         142.0830  139.2089  158.8163 C.ar    1  UNL1        0.1048
     17 CL        143.3783  139.5715  159.4801 Cl      1  UNL1       -0.0781
     18 C         140.8288  139.9562  159.1607 C.ar    1  UNL1        0.0687
     19 CL        140.8700  141.0660  160.1691 Cl      1  UNL1       -0.0815
     20 O         143.2961  137.3520  157.4635 O.3     1  UNL1       -0.4675
     21 C         143.2548  136.2422  156.4551 C.3     1  UNL1        0.2527
     22 C         141.9596  135.8797  155.7913 C.3     1  UNL1        0.2526
     23 O         140.7054  136.6270  156.1357 O.3     1  UNL1       -0.4684
     24 C         139.1108  138.7436  165.4751 C.3     1  UNL1        0.0604
     25 O         138.0068  139.9792  170.3266 O.2     1  UNL1       -0.2670
     26 C         139.2653  140.6275  169.8306 C.ar    1  UNL1        0.2611
     27 C         140.0516  141.5289  170.7357 C.ar    1  UNL1        0.0623
     28 C         141.3101  142.1772  170.2397 C.ar    1  UNL1        0.0254
     29 C         141.7822  141.9241  168.8387 C.ar    1  UNL1        0.0972
     30 N         142.9852  142.4297  168.0853 N.ar    1  UNL1       -0.2400
     31 C         143.3314  142.0844  166.6672 C.ar    1  UNL1        0.1282
     32 C         142.4450  141.1641  165.8816 C.ar    1  UNL1        0.1588
     33 F         142.7911  140.8188  164.4635 F       1  UNL1       -0.2027
     34 C         141.2123  140.5890  166.5140 C.ar    1  UNL1        0.0500
     35 C         140.9959  141.0227  167.9336 C.ar    1  UNL1        0.0806
     36 N         139.7375  140.3744  168.4296 N.ar    1  UNL1       -0.2915
     37 C         139.1761  139.5401  167.3165 C.3     1  UNL1        0.1402
     38 C         140.0876  139.6728  166.1327 C.3     1  UNL1        0.1335
     39 O         140.7949  139.6112  164.8113 O.3     1  UNL1       -0.3806
     40 H         140.3032  139.0323  164.2080 H       1  UNL1        0.2108
@<TRIPOS>BOND
     1    25    26    2
     2    26    27   ar
     3    27    28   ar
     4    28    29   ar
     5    29    30   ar
     6    30    31   ar
     7    31    32   ar
     8    32    33    1
     9    32    34   ar
    10    34    35   ar
    11    35    36   ar
    12    36    37    1
    13    37    38    1
    14    38    39    1
    15    38    24    1
    16    24     1    1
    17     1     2    1
    18     2     3    1
    19     3     4    1
    20     4     9    1
    21     9    11    1
    22    11    12    1
    23    12    13   ar
    24    13    14   ar
    25    14    15   ar
    26    15    16   ar
    27    16    17    1
    28    16    18   ar
    29    18    19    1
    30    15    20    1
    31    20    21    1
    32    21    22    1
    33    22    23    1
    34     4     5    1
    35     5     6    1
    36     4     7    1
    37     7     8    1
    38    36    26   ar
    39     6     1    1
    40    35    29   ar
    41     8     1    1
    42    38    34    1
    43    18    12   ar
    44    23    14    1
    45    39    40    1
    46     9    10    1
@<TRIPOS>MOLECULE
*****
 40 46 0 0 0
SMALL
GASTEIGER

@<TRIPOS>ATOM
      1 C         143.4142  142.9604  164.5713 C.3     1  UNL1        0.0955
      2 C         143.7036  142.3437  163.2348 C.3     1  UNL1        0.0287
      3 C         143.2858  143.0476  161.9778 C.3     1  UNL1        0.0193
      4 C         142.5786  144.3680  162.0572 C.3     1  UNL1        0.0700
      5 C         142.2892  144.9846  163.3936 C.3     1  UNL1        0.0193
      6 C         142.7070  144.2808  164.6507 C.3     1  UNL1        0.0287
      7 C         142.7882  144.0200  162.7735 C.3     1  UNL1        0.1562
      8 O         143.1660  143.3836  163.9100 O.3     1  UNL1       -0.3571
      9 N         142.1608  145.0718  160.8002 N.3     1  UNL1       -0.2938
     10 H         142.8887  144.8951  160.1079 H       1  UNL1        0.1235
     11 C         140.8527  144.7317  160.1496 C.3     1  UNL1        0.0966
     12 C         140.0392  143.5788  160.6588 C.ar    1  UNL1        0.0083
     13 C         140.1949  142.2205  160.0418 C.ar    1  UNL1        0.0380
     14 C         139.3814  141.0677  160.5510 C.ar    1  UNL1        0.1730
     15 C         138.4122  141.2733  161.6772 C.ar    1  UNL1        0.1836
     16 C         138.2565  142.6316  162.2942 C.ar    1  UNL1        0.1048
     17 CL        137.2872  142.8372  163.4204 Cl      1  UNL1       -0.0781
     18 C         139.0700  143.7844  161.7850 C.ar    1  UNL1        0.0687
     19 CL        138.9142  145.1427  162.4021 Cl      1  UNL1       -0.0815
     20 O         137.5986  140.1205  162.1864 O.3     1  UNL1       -0.4675
     21 C         137.7544  138.7621  161.5694 C.3     1  UNL1        0.2527
     22 C         138.7237  138.5567  160.4432 C.3     1  UNL1        0.2526
     23 O         139.5372  139.7094  159.9340 O.3     1  UNL1       -0.4684
     24 C         143.8320  142.2565  165.8283 C.3     1  UNL1        0.0604
     25 O         140.0244  139.1773  164.3107 O.2     1  UNL1       -0.2670
     26 C         139.9034  139.5915  165.7473 C.ar    1  UNL1        0.2611
     27 C         138.7510  139.1031  166.5740 C.ar    1  UNL1        0.0623
     28 C         138.6300  139.5172  168.0106 C.ar    1  UNL1        0.0254
     29 C         139.6612  140.4198  168.6205 C.ar    1  UNL1        0.0972
     30 N         139.7930  140.9874  170.0100 N.ar    1  UNL1       -0.2400
     31 C         140.8954  141.8895  170.4799 C.ar    1  UNL1        0.1282
     32 C         141.9865  142.2957  169.5341 C.ar    1  UNL1        0.1588
     33 F         143.0890  143.1978  170.0040 F       1  UNL1       -0.2027
     34 C         141.9751  141.7999  168.1185 C.ar    1  UNL1        0.0500
     35 C         140.8135  140.9081  167.7937 C.ar    1  UNL1        0.0806
     36 N         140.9346  140.4940  166.3571 N.ar    1  UNL1       -0.2915
     37 C         142.1710  141.1298  165.7941 C.3     1  UNL1        0.1402
     38 C         142.8141  141.9369  166.8826 C.3     1  UNL1        0.1335
     39 O         143.6700  142.8108  167.7508 O.3     1  UNL1       -0.3806
     40 H         144.4237  143.1391  167.2360 H       1  UNL1        0.2108
@<TRIPOS>BOND
     1    25    26    2
     2    26    27   ar
     3    27    28   ar
     4    28    29   ar
     5    29    30   ar
     6    30    31   ar
     7    31    32   ar
     8    32    33    1
     9    32    34   ar
    10    34    35   ar
    11    35    36   ar
    12    36    37    1
    13    37    38    1
    14    38    39    1
    15    38    24    1
    16    24     1    1
    17     1     2    1
    18     2     3    1
    19     3     4    1
    20     4     9    1
    21     9    11    1
    22    11    12    1
    23    12    13   ar
    24    13    14   ar
    25    14    15   ar
    26    15    16   ar
    27    16    17    1
    28    16    18   ar
    29    18    19    1
    30    15    20    1
    31    20    21    1
    32    21    22    1
    33    22    23    1
    34     4     5    1
    35     5     6    1
    36     4     7    1
    37     7     8    1
    38    36    26   ar
    39     6     1    1
    40    35    29   ar
    41     8     1    1
    42    38    34    1
    43    18    12   ar
    44    23    14    1
    45    39    40    1
    46     9    10    1
@<TRIPOS>MOLECULE
*****
 40 46 0 0 0
SMALL
GASTEIGER

@<TRIPOS>ATOM
      1 C         144.4876  141.5505  164.1001 C.3     1  UNL1        0.0955
      2 C         143.8039  140.4554  164.8640 C.3     1  UNL1        0.0287
      3 C         143.1707  140.7495  166.1916 C.3     1  UNL1        0.0193
      4 C         143.2211  142.1386  166.7554 C.3     1  UNL1        0.0700
      5 C         143.9048  143.2336  165.9915 C.3     1  UNL1        0.0193
      6 C         144.5380  142.9396  164.6638 C.3     1  UNL1        0.0287
      7 C         143.5824  142.0257  166.0240 C.3     1  UNL1        0.1562
      8 O         144.1549  141.7598  164.8236 O.3     1  UNL1       -0.3571
      9 N         142.5879  142.4327  168.0830 N.3     1  UNL1       -0.2938
     10 H         142.9935  143.3076  168.4153 H       1  UNL1        0.1235
     11 C         141.0987  142.5783  168.1877 C.3     1  UNL1        0.0966
     12 C         140.2170  142.0839  167.0795 C.ar    1  UNL1        0.0083
     13 C         139.9270  142.9661  165.9015 C.ar    1  UNL1        0.0380
     14 C         139.0452  142.4716  164.7933 C.ar    1  UNL1        0.1730
     15 C         138.4535  141.0951  164.8631 C.ar    1  UNL1        0.1836
     16 C         138.7435  140.2129  166.0411 C.ar    1  UNL1        0.1048
     17 CL        138.1518  138.8363  166.1109 Cl      1  UNL1       -0.0781
     18 C         139.6253  140.7074  167.1493 C.ar    1  UNL1        0.0687
     19 CL        139.9153  139.8251  168.3273 Cl      1  UNL1       -0.0815
     20 O         137.5718  140.6006  163.7549 O.3     1  UNL1       -0.4675
     21 C         137.2818  141.4829  162.5769 C.3     1  UNL1        0.2527
     22 C         137.8735  142.8594  162.5072 C.3     1  UNL1        0.2526
     23 O         138.7552  143.3538  163.6154 O.3     1  UNL1       -0.4684
     24 C         145.1208  141.2564  162.7724 C.3     1  UNL1        0.0604
     25 O         142.4735  144.5579  159.8785 O.2     1  UNL1       -0.2670
     26 C         142.2837  143.1305  159.4585 C.ar    1  UNL1        0.2611
     27 C         141.3910  142.8024  158.2986 C.ar    1  UNL1        0.0623
     28 C         141.2012  141.3750  157.8785 C.ar    1  UNL1        0.0254
     29 C         141.9040  140.2757  158.6184 C.ar    1  UNL1        0.0972
     30 N         141.9005  138.7816  158.4231 N.ar    1  UNL1       -0.2400
     31 C         142.6648  137.7942  159.2543 C.ar    1  UNL1        0.1282
     32 C         143.5216  138.2730  160.3886 C.ar    1  UNL1        0.1588
     33 F         144.2859  137.2856  161.2198 F       1  UNL1       -0.2027
     34 C         143.6141  139.7391  160.6917 C.ar    1  UNL1        0.0500
     35 C         142.7967  140.6037  159.7783 C.ar    1  UNL1        0.0806
     36 N         142.9865  142.0311  160.1983 N.ar    1  UNL1       -0.2915
     37 C         143.9213  142.0487  161.3713 C.3     1  UNL1        0.1402
     38 C         144.3092  140.6322  161.6762 C.3     1  UNL1        0.1335
     39 O         144.8667  139.3461  162.2103 O.3     1  UNL1       -0.3806
     40 H         145.4487  139.5340  162.9632 H       1  UNL1        0.2108
@<TRIPOS>BOND
     1    25    26    2
     2    26    27   ar
     3    27    28   ar
     4    28    29   ar
     5    29    30   ar
     6    30    31   ar
     7    31    32   ar
     8    32    33    1
     9    32    34   ar
    10    34    35   ar
    11    35    36   ar
    12    36    37    1
    13    37    38    1
    14    38    39    1
    15    38    24    1
    16    24     1    1
    17     1     2    1
    18     2     3    1
    19     3     4    1
    20     4     9    1
    21     9    11    1
    22    11    12    1
    23    12    13   ar
    24    13    14   ar
    25    14    15   ar
    26    15    16   ar
    27    16    17    1
    28    16    18   ar
    29    18    19    1
    30    15    20    1
    31    20    21    1
    32    21    22    1
    33    22    23    1
    34     4     5    1
    35     5     6    1
    36     4     7    1
    37     7     8    1
    38    36    26   ar
    39     6     1    1
    40    35    29   ar
    41     8     1    1
    42    38    34    1
    43    18    12   ar
    44    23    14    1
    45    39    40    1
    46     9    10    1
@<TRIPOS>MOLECULE
*****
 40 46 0 0 0
SMALL
GASTEIGER

@<TRIPOS>ATOM
      1 C         138.7507  138.9594  164.1561 C.3     1  UNL1        0.0955
      2 C         138.8761  137.9002  163.1013 C.3     1  UNL1        0.0287
      3 C         138.3462  138.1503  161.7205 C.3     1  UNL1        0.0193
      4 C         137.6908  139.4596  161.3945 C.3     1  UNL1        0.0700
      5 C         137.5654  140.5187  162.4492 C.3     1  UNL1        0.0193
      6 C         138.0954  140.2686  163.8301 C.3     1  UNL1        0.0287
      7 C         137.9660  139.3685  162.1652 C.3     1  UNL1        0.1562
      8 O         138.4452  139.1424  163.4137 O.3     1  UNL1       -0.3571
      9 N         137.1609  139.7097  160.0137 N.3     1  UNL1       -0.2938
     10 H         136.3211  140.2790  160.1192 H       1  UNL1        0.1235
     11 C         138.0215  140.3926  158.9924 C.3     1  UNL1        0.0966
     12 C         139.4955  140.5371  159.2297 C.ar    1  UNL1        0.0083
     13 C         140.0311  141.7714  159.8927 C.ar    1  UNL1        0.0380
     14 C         141.5052  141.9159  160.1299 C.ar    1  UNL1        0.1730
     15 C         142.4437  140.8260  159.7040 C.ar    1  UNL1        0.1836
     16 C         141.9081  139.5917  159.0410 C.ar    1  UNL1        0.1048
     17 CL        142.8466  138.5018  158.6152 Cl      1  UNL1       -0.0781
     18 C         140.4341  139.4473  158.8038 C.ar    1  UNL1        0.0687
     19 CL        139.8986  138.2128  158.1407 Cl      1  UNL1       -0.0815
     20 O         143.9178  140.9704  159.9412 O.3     1  UNL1       -0.4675
     21 C         144.4533  142.2049  160.6043 C.3     1  UNL1        0.2527
     22 C         143.5147  143.2946  161.0301 C.3     1  UNL1        0.2526
     23 O         142.0407  143.1502  160.7929 O.3     1  UNL1       -0.4684
     24 C         139.2807  138.7092  165.5369 C.3     1  UNL1        0.0604
     25 O         138.1019  140.0785  170.3346 O.2     1  UNL1       -0.2670
     26 C         139.3434  140.7481  169.8244 C.ar    1  UNL1        0.2611
     27 C         140.0944  141.7048  170.7023 C.ar    1  UNL1        0.0623
     28 C         141.3358  142.3744  170.1921 C.ar    1  UNL1        0.0254
     29 C         141.8263  142.0874  168.8039 C.ar    1  UNL1        0.0972
     30 N         143.0187  142.6038  168.0411 N.ar    1  UNL1       -0.2400
     31 C         143.3863  142.2202  166.6384 C.ar    1  UNL1        0.1282
     32 C         142.5349  141.2457  165.8798 C.ar    1  UNL1        0.1588
     33 F         142.9024  140.8621  164.4771 F       1  UNL1       -0.2027
     34 C         141.3159  140.6547  166.5240 C.ar    1  UNL1        0.0500
     35 C         141.0754  141.1308  167.9260 C.ar    1  UNL1        0.0806
     36 N         139.8339  140.4611  168.4363 N.ar    1  UNL1       -0.2915
     37 C         139.3072  139.5713  167.3496 C.3     1  UNL1        0.1402
     38 C         140.2232  139.6909  166.1678 C.3     1  UNL1        0.1335
     39 O         140.9421  139.6054  164.8541 O.3     1  UNL1       -0.3806
     40 H         140.4732  138.9906  164.2683 H       1  UNL1        0.2108
@<TRIPOS>BOND
     1    25    26    2
     2    26    27   ar
     3    27    28   ar
     4    28    29   ar
     5    29    30   ar
     6    30    31   ar
     7    31    32   ar
     8    32    33    1
     9    32    34   ar
    10    34    35   ar
    11    35    36   ar
    12    36    37    1
    13    37    38    1
    14    38    39    1
    15    38    24    1
    16    24     1    1
    17     1     2    1
    18     2     3    1
    19     3     4    1
    20     4     9    1
    21     9    11    1
    22    11    12    1
    23    12    13   ar
    24    13    14   ar
    25    14    15   ar
    26    15    16   ar
    27    16    17    1
    28    16    18   ar
    29    18    19    1
    30    15    20    1
    31    20    21    1
    32    21    22    1
    33    22    23    1
    34     4     5    1
    35     5     6    1
    36     4     7    1
    37     7     8    1
    38    36    26   ar
    39     6     1    1
    40    35    29   ar
    41     8     1    1
    42    38    34    1
    43    18    12   ar
    44    23    14    1
    45    39    40    1
    46     9    10    1
@<TRIPOS>MOLECULE
*****
 40 46 0 0 0
SMALL
GASTEIGER

@<TRIPOS>ATOM
      1 C         140.1608  138.2178  164.3389 C.3     1  UNL1        0.0955
      2 C         141.4052  138.4187  165.1522 C.3     1  UNL1        0.0287
      3 C         141.3630  139.2625  166.3917 C.3     1  UNL1        0.0193
      4 C         140.0766  139.9054  166.8179 C.3     1  UNL1        0.0700
      5 C         138.8323  139.7046  166.0046 C.3     1  UNL1        0.0193
      6 C         138.8744  138.8608  164.7651 C.3     1  UNL1        0.0287
      7 C         140.0505  139.4517  166.1312 C.3     1  UNL1        0.1562
      8 O         140.0886  138.6887  165.0105 O.3     1  UNL1       -0.3571
      9 N         140.0344  140.7492  168.0573 N.3     1  UNL1       -0.2938
     10 H         140.6446  140.3001  168.7402 H       1  UNL1        0.1235
     11 C         140.4406  142.1919  167.9965 C.3     1  UNL1        0.0966
     12 C         140.7669  142.8242  166.6760 C.ar    1  UNL1        0.0083
     13 C         139.6826  143.4700  165.8653 C.ar    1  UNL1        0.0380
     14 C         140.0089  144.1023  164.5448 C.ar    1  UNL1        0.1730
     15 C         141.4196  144.0888  164.0350 C.ar    1  UNL1        0.1836
     16 C         142.5039  143.4431  164.8457 C.ar    1  UNL1        0.1048
     17 CL        143.9145  143.4296  164.3359 Cl      1  UNL1       -0.0781
     18 C         142.1775  142.8108  166.1662 C.ar    1  UNL1        0.0687
     19 CL        143.2619  142.1650  166.9769 Cl      1  UNL1       -0.0815
     20 O         141.7459  144.7211  162.7145 O.3     1  UNL1       -0.4675
     21 C         140.6615  145.3669  161.9039 C.3     1  UNL1        0.2527
     22 C         139.2510  145.3804  162.4137 C.3     1  UNL1        0.2526
     23 O         138.9246  144.7481  163.7342 O.3     1  UNL1       -0.4684
     24 C         140.2030  137.3740  163.0995 C.3     1  UNL1        0.0604
     25 O         136.8139  139.7542  160.0776 O.2     1  UNL1       -0.2670
     26 C         138.2027  139.7539  159.5108 C.ar    1  UNL1        0.2611
     27 C         138.4732  140.4084  158.1885 C.ar    1  UNL1        0.0623
     28 C         139.8619  140.4081  157.6217 C.ar    1  UNL1        0.0254
     29 C         140.9802  139.7533  158.3771 C.ar    1  UNL1        0.0972
     30 N         142.4450  139.6025  158.0577 N.ar    1  UNL1       -0.2400
     31 C         143.4570  138.9118  158.9230 C.ar    1  UNL1        0.1282
     32 C         143.0367  138.3004  160.2267 C.ar    1  UNL1        0.1588
     33 F         144.0487  137.6097  161.0919 F       1  UNL1       -0.2027
     34 C         141.6043  138.3797  160.6650 C.ar    1  UNL1        0.0500
     35 C         140.7097  139.0988  159.6993 C.ar    1  UNL1        0.0806
     36 N         139.3209  139.0991  160.2662 N.ar    1  UNL1       -0.2915
     37 C         139.3573  138.3802  161.5822 C.3     1  UNL1        0.1402
     38 C         140.7685  137.9356  161.8287 C.3     1  UNL1        0.1335
     39 O         142.0615  137.3736  162.3408 O.3     1  UNL1       -0.3806
     40 H         141.9107  136.9442  163.1975 H       1  UNL1        0.2108
@<TRIPOS>BOND
     1    25    26    2
     2    26    27   ar
     3    27    28   ar
     4    28    29   ar
     5    29    30   ar
     6    30    31   ar
     7    31    32   ar
     8    32    33    1
     9    32    34   ar
    10    34    35   ar
    11    35    36   ar
    12    36    37    1
    13    37    38    1
    14    38    39    1
    15    38    24    1
    16    24     1    1
    17     1     2    1
    18     2     3    1
    19     3     4    1
    20     4     9    1
    21     9    11    1
    22    11    12    1
    23    12    13   ar
    24    13    14   ar
    25    14    15   ar
    26    15    16   ar
    27    16    17    1
    28    16    18   ar
    29    18    19    1
    30    15    20    1
    31    20    21    1
    32    21    22    1
    33    22    23    1
    34     4     5    1
    35     5     6    1
    36     4     7    1
    37     7     8    1
    38    36    26   ar
    39     6     1    1
    40    35    29   ar
    41     8     1    1
    42    38    34    1
    43    18    12   ar
    44    23    14    1
    45    39    40    1
    46     9    10    1
@<TRIPOS>MOLECULE
*****
 40 46 0 0 0
SMALL
GASTEIGER

@<TRIPOS>ATOM
      1 C         137.8730  140.6288  162.1248 C.3     1  UNL1        0.0955
      2 C         137.7690  140.4646  163.6122 C.3     1  UNL1        0.0287
      3 C         137.7304  141.6736  164.4993 C.3     1  UNL1        0.0193
      4 C         137.7959  143.0467  163.8990 C.3     1  UNL1        0.0700
      5 C         137.8998  143.2108  162.4116 C.3     1  UNL1        0.0193
      6 C         137.9384  142.0018  161.5245 C.3     1  UNL1        0.0287
      7 C         137.8203  142.4141  163.3723 C.3     1  UNL1        0.1562
      8 O         137.8551  141.3210  162.5703 O.3     1  UNL1       -0.3571
      9 N         137.7573  144.2557  164.7860 N.3     1  UNL1       -0.2938
     10 H         137.1558  144.0223  165.5760 H       1  UNL1        0.1235
     11 C         139.0296  144.8066  165.3585 C.3     1  UNL1        0.0966
     12 C         140.3368  144.1302  165.0694 C.ar    1  UNL1        0.0083
     13 C         141.1169  144.4989  163.8425 C.ar    1  UNL1        0.0380
     14 C         142.4242  143.8224  163.5534 C.ar    1  UNL1        0.1730
     15 C         142.9513  142.7773  164.4914 C.ar    1  UNL1        0.1836
     16 C         142.1712  142.4086  165.7184 C.ar    1  UNL1        0.1048
     17 CL        142.6984  141.3635  166.6563 Cl      1  UNL1       -0.0781
     18 C         140.8640  143.0851  166.0074 C.ar    1  UNL1        0.0687
     19 CL        140.0839  142.7163  167.2345 Cl      1  UNL1       -0.0815
     20 O         144.2586  142.1008  164.2024 O.3     1  UNL1       -0.4675
     21 C         145.0386  142.4696  162.9753 C.3     1  UNL1        0.2527
     22 C         144.5114  143.5147  162.0374 C.3     1  UNL1        0.2526
     23 O         143.2042  144.1911  162.3264 O.3     1  UNL1       -0.4684
     24 C         137.9115  139.4198  161.2377 C.3     1  UNL1        0.0604
     25 O         138.0212  139.7919  156.1258 O.2     1  UNL1       -0.2670
     26 C         139.3066  139.2760  156.7016 C.ar    1  UNL1        0.2611
     27 C         140.4501  138.9316  155.7940 C.ar    1  UNL1        0.0623
     28 C         141.7356  138.4157  156.3698 C.ar    1  UNL1        0.0254
     29 C         141.8775  138.2443  157.8532 C.ar    1  UNL1        0.0972
     30 N         143.0280  137.7562  158.6949 N.ar    1  UNL1       -0.2400
     31 C         143.0226  137.6376  160.1902 C.ar    1  UNL1        0.1282
     32 C         141.7992  138.0217  160.9685 C.ar    1  UNL1        0.1588
     33 F         141.7937  137.9031  162.4638 F       1  UNL1       -0.2027
     34 C         140.5812  138.5243  160.2516 C.ar    1  UNL1        0.0500
     35 C         140.7340  138.5887  158.7607 C.ar    1  UNL1        0.0806
     36 N         139.4486  139.1046  158.1849 N.ar    1  UNL1       -0.2915
     37 C         138.5014  139.3590  159.3199 C.3     1  UNL1        0.1402
     38 C         139.2014  139.0003  160.5972 C.3     1  UNL1        0.1335
     39 O         139.6318  138.7294  162.0083 O.3     1  UNL1       -0.3806
     40 H         138.9062  138.9455  162.6148 H       1  UNL1        0.2108
@<TRIPOS>BOND
     1    25    26    2
     2    26    27   ar
     3    27    28   ar
     4    28    29   ar
     5    29    30   ar
     6    30    31   ar
     7    31    32   ar
     8    32    33    1
     9    32    34   ar
    10    34    35   ar
    11    35    36   ar
    12    36    37    1
    13    37    38    1
    14    38    39    1
    15    38    24    1
    16    24     1    1
    17     1     2    1
    18     2     3    1
    19     3     4    1
    20     4     9    1
    21     9    11    1
    22    11    12    1
    23    12    13   ar
    24    13    14   ar
    25    14    15   ar
    26    15    16   ar
    27    16    17    1
    28    16    18   ar
    29    18    19    1
    30    15    20    1
    31    20    21    1
    32    21    22    1
    33    22    23    1
    34     4     5    1
    35     5     6    1
    36     4     7    1
    37     7     8    1
    38    36    26   ar
    39     6     1    1
    40    35    29   ar
    41     8     1    1
    42    38    34    1
    43    18    12   ar
    44    23    14    1
    45    39    40    1
    46     9    10    1
