@<TRIPOS>MOLECULE
*****
 21 23 0 0 0
SMALL
GASTEIGER

@<TRIPOS>ATOM
      1 C         138.7175  139.7415  166.2354 C.ar    1  UNL1        0.0536
      2 C         138.6066  140.6545  165.0504 C.ar    1  UNL1        0.0829
      3 N         139.3221  141.9309  165.3802 N.ar    1  UNL1       -0.3048
      4 C         139.8751  141.8069  166.7690 C.ar    1  UNL1        0.0642
      5 C         140.6707  142.7512  167.6206 C.ar    1  UNL1        0.0184
      6 C         141.0926  142.3424  169.0007 C.ar    1  UNL1        0.0129
      7 C         140.7190  140.9892  169.5293 C.ar    1  UNL1        0.0578
      8 CL        141.1409  140.5804  170.9095 Cl      1  UNL1       -0.0822
      9 C         139.9234  140.0448  168.6776 C.ar    1  UNL1        0.0130
     10 C         139.5015  140.4537  167.2975 C.ar    1  UNL1        0.0212
     11 C         139.4602  143.1224  164.4794 C.ar    1  UNL1        0.0642
     12 C         140.7925  143.7937  164.3228 C.ar    1  UNL1        0.0198
     13 C         140.9306  144.9852  163.4219 C.ar    1  UNL1        0.0311
     14 C         139.7366  145.5052  162.6778 C.ar    1  UNL1        0.1402
     15 F         139.8747  146.6967  161.7770 F       1  UNL1       -0.2042
     16 C         138.4044  144.8339  162.8345 C.ar    1  UNL1        0.0311
     17 C         138.2662  143.6425  163.7353 C.ar    1  UNL1        0.0198
     18 C         138.1450  138.3590  166.3398 C.2     1  UNL1        0.1745
     19 O         137.0858  138.0609  167.3592 O.2     1  UNL1       -0.2913
     20 C         139.9710  137.3984  164.7609 C.3     1  UNL1        0.0086
     21 C         138.6317  137.2745  165.4249 C.3     1  UNL1        0.0692
@<TRIPOS>BOND
     1    20    21    1
     2    21    18    1
     3    18    19    2
     4    18     1    1
     5     1     2   ar
     6     2     3   ar
     7     3    11    1
     8    11    12   ar
     9    12    13   ar
    10    13    14   ar
    11    14    15    1
    12    14    16   ar
    13    16    17   ar
    14     3     4   ar
    15     4     5   ar
    16     5     6   ar
    17     6     7   ar
    18     7     8    1
    19     7     9   ar
    20     9    10   ar
    21    10     1   ar
    22    17    11   ar
    23    10     4   ar
@<TRIPOS>MOLECULE
*****
 21 23 0 0 0
SMALL
GASTEIGER

@<TRIPOS>ATOM
      1 C         143.0353  143.0756  164.4313 C.ar    1  UNL1        0.0536
      2 C         142.7675  142.2435  165.6503 C.ar    1  UNL1        0.0829
      3 N         141.3378  142.4559  166.0515 N.ar    1  UNL1       -0.3048
      4 C         140.7220  143.4192  165.0805 C.ar    1  UNL1        0.0642
      5 C         139.3416  143.9971  164.9787 C.ar    1  UNL1        0.0184
      6 C         139.0103  144.9579  163.8756 C.ar    1  UNL1        0.0129
      7 C         140.0594  145.3409  162.8743 C.ar    1  UNL1        0.0578
      8 CL        139.7280  146.3019  161.7711 Cl      1  UNL1       -0.0822
      9 C         141.4398  144.7630  162.9760 C.ar    1  UNL1        0.0130
     10 C         141.7712  143.8022  164.0791 C.ar    1  UNL1        0.0212
     11 C         140.6454  141.8171  167.2188 C.ar    1  UNL1        0.0642
     12 C         139.9523  140.4976  167.0494 C.ar    1  UNL1        0.0198
     13 C         139.2599  139.8588  168.2167 C.ar    1  UNL1        0.0311
     14 C         139.2606  140.5394  169.5533 C.ar    1  UNL1        0.1402
     15 F         138.5682  139.9007  170.7206 F       1  UNL1       -0.2042
     16 C         139.9537  141.8589  169.7227 C.ar    1  UNL1        0.0311
     17 C         140.6461  142.4977  168.5554 C.ar    1  UNL1        0.0198
     18 C         144.3384  143.1653  163.6939 C.2     1  UNL1        0.1745
     19 O         144.5423  144.2308  162.6581 O.2     1  UNL1       -0.2913
     20 C         145.2960  140.7524  163.5861 C.3     1  UNL1        0.0086
     21 C         145.4379  142.1894  163.9924 C.3     1  UNL1        0.0692
@<TRIPOS>BOND
     1    20    21    1
     2    21    18    1
     3    18    19    2
     4    18     1    1
     5     1     2   ar
     6     2     3   ar
     7     3    11    1
     8    11    12   ar
     9    12    13   ar
    10    13    14   ar
    11    14    15    1
    12    14    16   ar
    13    16    17   ar
    14     3     4   ar
    15     4     5   ar
    16     5     6   ar
    17     6     7   ar
    18     7     8    1
    19     7     9   ar
    20     9    10   ar
    21    10     1   ar
    22    17    11   ar
    23    10     4   ar
@<TRIPOS>MOLECULE
*****
 21 23 0 0 0
SMALL
GASTEIGER

@<TRIPOS>ATOM
      1 C         139.2758  139.4816  165.8494 C.ar    1  UNL1        0.0536
      2 C         140.0891  139.7340  167.0842 C.ar    1  UNL1        0.0829
      3 N         140.4197  141.1964  167.1305 N.ar    1  UNL1       -0.3048
      4 C         139.8107  141.8478  165.9244 C.ar    1  UNL1        0.0642
      5 C         139.8087  143.2690  165.4447 C.ar    1  UNL1        0.0184
      6 C         139.0996  143.6304  164.1733 C.ar    1  UNL1        0.0129
      7 C         138.3925  142.5706  163.3816 C.ar    1  UNL1        0.0578
      8 CL        137.6834  142.9321  162.1101 Cl      1  UNL1       -0.0822
      9 C         138.3946  141.1494  163.8612 C.ar    1  UNL1        0.0130
     10 C         139.1037  140.7880  165.1326 C.ar    1  UNL1        0.0212
     11 C         141.2190  141.8863  168.1960 C.ar    1  UNL1        0.0642
     12 C         142.6751  141.5681  168.3656 C.ar    1  UNL1        0.0198
     13 C         143.4744  142.2580  169.4310 C.ar    1  UNL1        0.0311
     14 C         142.8177  143.2661  170.3268 C.ar    1  UNL1        0.1402
     15 F         143.6171  143.9560  171.3923 F       1  UNL1       -0.2042
     16 C         141.3617  143.5843  170.1572 C.ar    1  UNL1        0.0311
     17 C         140.5624  142.8944  169.0917 C.ar    1  UNL1        0.0198
     18 C         138.7302  138.1557  165.4088 C.2     1  UNL1        0.1745
     19 O         138.9467  137.6860  164.0008 O.2     1  UNL1       -0.2913
     20 C         137.0851  137.9366  167.4078 C.3     1  UNL1        0.0086
     21 C         137.9681  137.2992  166.3762 C.3     1  UNL1        0.0692
@<TRIPOS>BOND
     1    20    21    1
     2    21    18    1
     3    18    19    2
     4    18     1    1
     5     1     2   ar
     6     2     3   ar
     7     3    11    1
     8    11    12   ar
     9    12    13   ar
    10    13    14   ar
    11    14    15    1
    12    14    16   ar
    13    16    17   ar
    14     3     4   ar
    15     4     5   ar
    16     5     6   ar
    17     6     7   ar
    18     7     8    1
    19     7     9   ar
    20     9    10   ar
    21    10     1   ar
    22    17    11   ar
    23    10     4   ar
@<TRIPOS>MOLECULE
*****
 21 23 0 0 0
SMALL
GASTEIGER

@<TRIPOS>ATOM
      1 C         141.0610  141.7582  168.4847 C.ar    1  UNL1        0.0536
      2 C         140.4686  142.8826  167.6880 C.ar    1  UNL1        0.0829
      3 N         140.8537  142.6860  166.2517 N.ar    1  UNL1       -0.3048
      4 C         141.6841  141.4402  166.1607 C.ar    1  UNL1        0.0642
      5 C         142.3401  140.7538  164.9995 C.ar    1  UNL1        0.0184
      6 C         143.1243  139.4940  165.2184 C.ar    1  UNL1        0.0129
      7 C         143.2524  138.9206  166.5985 C.ar    1  UNL1        0.0578
      8 CL        144.0367  137.6607  166.8174 Cl      1  UNL1       -0.0822
      9 C         142.5964  139.6070  167.7597 C.ar    1  UNL1        0.0130
     10 C         141.8122  140.8667  167.5408 C.ar    1  UNL1        0.0212
     11 C         140.4749  143.5786  165.1072 C.ar    1  UNL1        0.0642
     12 C         139.0301  143.7703  164.7519 C.ar    1  UNL1        0.0198
     13 C         138.6513  144.6629  163.6074 C.ar    1  UNL1        0.0311
     14 C         139.7171  145.3638  162.8182 C.ar    1  UNL1        0.1402
     15 F         139.3383  146.2563  161.6737 F       1  UNL1       -0.2042
     16 C         141.1618  145.1721  163.1735 C.ar    1  UNL1        0.0311
     17 C         141.5406  144.2795  164.3180 C.ar    1  UNL1        0.0198
     18 C         140.9259  141.5600  169.9654 C.2     1  UNL1        0.1745
     19 O         141.5990  142.5076  170.9135 O.2     1  UNL1       -0.2913
     20 C         138.6951  140.2314  170.0587 C.3     1  UNL1        0.0086
     21 C         140.1176  140.4141  170.4981 C.3     1  UNL1        0.0692
@<TRIPOS>BOND
     1    20    21    1
     2    21    18    1
     3    18    19    2
     4    18     1    1
     5     1     2   ar
     6     2     3   ar
     7     3    11    1
     8    11    12   ar
     9    12    13   ar
    10    13    14   ar
    11    14    15    1
    12    14    16   ar
    13    16    17   ar
    14     3     4   ar
    15     4     5   ar
    16     5     6   ar
    17     6     7   ar
    18     7     8    1
    19     7     9   ar
    20     9    10   ar
    21    10     1   ar
    22    17    11   ar
    23    10     4   ar
@<TRIPOS>MOLECULE
*****
 21 23 0 0 0
SMALL
GASTEIGER

@<TRIPOS>ATOM
      1 C         140.7031  141.5217  168.0901 C.ar    1  UNL1        0.0536
      2 C         141.0260  142.7141  167.2394 C.ar    1  UNL1        0.0829
      3 N         140.2603  142.5885  165.9556 N.ar    1  UNL1       -0.3048
      4 C         139.4642  141.3185  166.0130 C.ar    1  UNL1        0.0642
      5 C         138.5255  140.6773  165.0344 C.ar    1  UNL1        0.0184
      6 C         137.8605  139.3767  165.3751 C.ar    1  UNL1        0.0129
      7 C         138.1341  138.7173  166.6943 C.ar    1  UNL1        0.0578
      8 CL        137.4690  137.4167  167.0349 Cl      1  UNL1       -0.0822
      9 C         139.0728  139.3586  167.6729 C.ar    1  UNL1        0.0130
     10 C         139.7379  140.6591  167.3322 C.ar    1  UNL1        0.0212
     11 C         140.2862  143.5621  164.8148 C.ar    1  UNL1        0.0642
     12 C         141.5947  143.9630  164.2004 C.ar    1  UNL1        0.0198
     13 C         141.6206  144.9365  163.0596 C.ar    1  UNL1        0.0311
     14 C         140.3381  145.5092  162.5330 C.ar    1  UNL1        0.1402
     15 F         140.3639  146.4828  161.3922 F       1  UNL1       -0.2042
     16 C         139.0297  145.1083  163.1474 C.ar    1  UNL1        0.0311
     17 C         139.0038  144.1348  164.2882 C.ar    1  UNL1        0.0198
     18 C         141.2495  141.2410  169.4586 C.2     1  UNL1        0.1745
     19 O         140.5387  141.7635  170.6717 O.2     1  UNL1       -0.2913
     20 C         142.4268  138.9675  169.9010 C.3     1  UNL1        0.0086
     21 C         142.5067  140.4376  169.6140 C.3     1  UNL1        0.0692
@<TRIPOS>BOND
     1    20    21    1
     2    21    18    1
     3    18    19    2
     4    18     1    1
     5     1     2   ar
     6     2     3   ar
     7     3    11    1
     8    11    12   ar
     9    12    13   ar
    10    13    14   ar
    11    14    15    1
    12    14    16   ar
    13    16    17   ar
    14     3     4   ar
    15     4     5   ar
    16     5     6   ar
    17     6     7   ar
    18     7     8    1
    19     7     9   ar
    20     9    10   ar
    21    10     1   ar
    22    17    11   ar
    23    10     4   ar
@<TRIPOS>MOLECULE
*****
 21 23 0 0 0
SMALL
GASTEIGER

@<TRIPOS>ATOM
      1 C         142.7769  142.6263  164.4242 C.ar    1  UNL1        0.0536
      2 C         142.3317  141.3340  165.0421 C.ar    1  UNL1        0.0829
      3 N         140.8504  141.2102  164.8412 N.ar    1  UNL1       -0.3048
      4 C         140.3801  142.4260  164.0992 C.ar    1  UNL1        0.0642
      5 C         139.0215  142.8492  163.6249 C.ar    1  UNL1        0.0184
      6 C         138.8535  144.1476  162.8928 C.ar    1  UNL1        0.0129
      7 C         140.0441  145.0228  162.6351 C.ar    1  UNL1        0.0578
      8 CL        139.8761  146.3213  161.9031 Cl      1  UNL1       -0.0822
      9 C         141.4028  144.5996  163.1094 C.ar    1  UNL1        0.0130
     10 C         141.5707  143.3012  163.8415 C.ar    1  UNL1        0.0212
     11 C         139.9904  140.0707  165.3015 C.ar    1  UNL1        0.0642
     12 C         139.9417  138.7992  164.5070 C.ar    1  UNL1        0.0198
     13 C         139.0816  137.6597  164.9673 C.ar    1  UNL1        0.0311
     14 C         138.2703  137.7916  166.2221 C.ar    1  UNL1        0.1402
     15 F         137.4103  136.6521  166.6824 F       1  UNL1       -0.2042
     16 C         138.3190  139.0630  167.0165 C.ar    1  UNL1        0.0311
     17 C         139.1791  140.2025  166.5562 C.ar    1  UNL1        0.0198
     18 C         144.1816  143.1515  164.3944 C.2     1  UNL1        0.1745
     19 O         144.4861  144.5108  164.9504 O.2     1  UNL1       -0.2913
     20 C         145.0744  141.6140  162.4997 C.3     1  UNL1        0.0086
     21 C         145.2820  142.3172  163.8084 C.3     1  UNL1        0.0692
@<TRIPOS>BOND
     1    20    21    1
     2    21    18    1
     3    18    19    2
     4    18     1    1
     5     1     2   ar
     6     2     3   ar
     7     3    11    1
     8    11    12   ar
     9    12    13   ar
    10    13    14   ar
    11    14    15    1
    12    14    16   ar
    13    16    17   ar
    14     3     4   ar
    15     4     5   ar
    16     5     6   ar
    17     6     7   ar
    18     7     8    1
    19     7     9   ar
    20     9    10   ar
    21    10     1   ar
    22    17    11   ar
    23    10     4   ar
@<TRIPOS>MOLECULE
*****
 21 23 0 0 0
SMALL
GASTEIGER

@<TRIPOS>ATOM
      1 C         143.8357  141.3632  164.3231 C.ar    1  UNL1        0.0536
      2 C         143.3884  141.5538  165.7420 C.ar    1  UNL1        0.0829
      3 N         142.4714  140.4204  166.0951 N.ar    1  UNL1       -0.3048
      4 C         142.3521  139.5294  164.8944 C.ar    1  UNL1        0.0642
      5 C         141.5846  138.2627  164.6568 C.ar    1  UNL1        0.0184
      6 C         141.6603  137.5788  163.3240 C.ar    1  UNL1        0.0129
      7 C         142.5035  138.1614  162.2288 C.ar    1  UNL1        0.0578
      8 CL        142.5791  137.4774  160.8959 Cl      1  UNL1       -0.0822
      9 C         143.2710  139.4281  162.4664 C.ar    1  UNL1        0.0130
     10 C         143.1953  140.1120  163.7992 C.ar    1  UNL1        0.0212
     11 C         141.7929  140.2143  167.4169 C.ar    1  UNL1        0.0642
     12 C         142.5496  139.6090  168.5621 C.ar    1  UNL1        0.0198
     13 C         141.8711  139.4029  169.8839 C.ar    1  UNL1        0.0311
     14 C         140.4360  139.8019  170.0606 C.ar    1  UNL1        0.1402
     15 F         139.7575  139.5957  171.3824 F       1  UNL1       -0.2042
     16 C         139.6794  140.4071  168.9155 C.ar    1  UNL1        0.0311
     17 C         140.3579  140.6133  167.5937 C.ar    1  UNL1        0.0198
     18 C         144.7611  142.2653  163.5616 C.2     1  UNL1        0.1745
     19 O         146.0827  141.7476  163.0766 O.2     1  UNL1       -0.2913
     20 C         143.3397  143.9866  162.2322 C.3     1  UNL1        0.0086
     21 C         144.3648  143.6855  163.2851 C.3     1  UNL1        0.0692
@<TRIPOS>BOND
     1    20    21    1
     2    21    18    1
     3    18    19    2
     4    18     1    1
     5     1     2   ar
     6     2     3   ar
     7     3    11    1
     8    11    12   ar
     9    12    13   ar
    10    13    14   ar
    11    14    15    1
    12    14    16   ar
    13    16    17   ar
    14     3     4   ar
    15     4     5   ar
    16     5     6   ar
    17     6     7   ar
    18     7     8    1
    19     7     9   ar
    20     9    10   ar
    21    10     1   ar
    22    17    11   ar
    23    10     4   ar
@<TRIPOS>MOLECULE
*****
 21 23 0 0 0
SMALL
GASTEIGER

@<TRIPOS>ATOM
      1 C         139.5892  142.8456  163.6915 C.ar    1  UNL1        0.0536
      2 C         140.2084  143.4683  164.9075 C.ar    1  UNL1        0.0829
      3 N         140.5126  142.3724  165.8855 N.ar    1  UNL1       -0.3048
      4 C         140.0814  141.0724  165.2738 C.ar    1  UNL1        0.0642
      5 C         140.1347  139.6601  165.7764 C.ar    1  UNL1        0.0184
      6 C         139.6173  138.5404  164.9230 C.ar    1  UNL1        0.0129
      7 C         139.0466  138.8329  163.5670 C.ar    1  UNL1        0.0578
      8 CL        138.5291  137.7130  162.7136 Cl      1  UNL1       -0.0822
      9 C         138.9932  140.2451  163.0645 C.ar    1  UNL1        0.0130
     10 C         139.5107  141.3649  163.9179 C.ar    1  UNL1        0.0212
     11 C         141.1382  142.5459  167.2377 C.ar    1  UNL1        0.0642
     12 C         140.3380  143.1278  168.3653 C.ar    1  UNL1        0.0198
     13 C         140.9636  143.3013  169.7175 C.ar    1  UNL1        0.0311
     14 C         142.3894  142.8931  169.9422 C.ar    1  UNL1        0.1402
     15 F         143.0150  143.0666  171.2944 F       1  UNL1       -0.2042
     16 C         143.1895  142.3113  168.8147 C.ar    1  UNL1        0.0311
     17 C         142.5639  142.1377  167.4625 C.ar    1  UNL1        0.0198
     18 C         139.1292  143.5755  162.4644 C.2     1  UNL1        0.1745
     19 O         137.7398  143.3619  161.9413 O.2     1  UNL1       -0.2913
     20 C         139.8517  146.0005  161.8746 C.3     1  UNL1        0.0086
     21 C         140.0587  144.5192  161.7604 C.3     1  UNL1        0.0692
@<TRIPOS>BOND
     1    20    21    1
     2    21    18    1
     3    18    19    2
     4    18     1    1
     5     1     2   ar
     6     2     3   ar
     7     3    11    1
     8    11    12   ar
     9    12    13   ar
    10    13    14   ar
    11    14    15    1
    12    14    16   ar
    13    16    17   ar
    14     3     4   ar
    15     4     5   ar
    16     5     6   ar
    17     6     7   ar
    18     7     8    1
    19     7     9   ar
    20     9    10   ar
    21    10     1   ar
    22    17    11   ar
    23    10     4   ar
@<TRIPOS>MOLECULE
*****
 21 23 0 0 0
SMALL
GASTEIGER

@<TRIPOS>ATOM
      1 C         141.6533  141.4012  168.3268 C.ar    1  UNL1        0.0536
      2 C         142.6827  141.9521  167.3851 C.ar    1  UNL1        0.0829
      3 N         142.3221  141.5141  165.9965 N.ar    1  UNL1       -0.3048
      4 C         141.0700  140.6924  166.0801 C.ar    1  UNL1        0.0642
      5 C         140.2528  139.9988  165.0308 C.ar    1  UNL1        0.0184
      6 C         139.0223  139.2353  165.4218 C.ar    1  UNL1        0.0129
      7 C         138.6089  139.1655  166.8620 C.ar    1  UNL1        0.0578
      8 CL        137.3783  138.4020  167.2529 Cl      1  UNL1       -0.0822
      9 C         139.4261  139.8592  167.9113 C.ar    1  UNL1        0.0130
     10 C         140.6566  140.6226  167.5203 C.ar    1  UNL1        0.0212
     11 C         143.0806  141.8404  164.7442 C.ar    1  UNL1        0.0642
     12 C         142.4729  142.7453  163.7136 C.ar    1  UNL1        0.0198
     13 C         143.2314  143.0716  162.4613 C.ar    1  UNL1        0.0311
     14 C         144.5974  142.4932  162.2396 C.ar    1  UNL1        0.1402
     15 F         145.3559  142.8195  160.9873 F       1  UNL1       -0.2042
     16 C         145.2051  141.5884  163.2702 C.ar    1  UNL1        0.0311
     17 C         144.4466  141.2620  164.5225 C.ar    1  UNL1        0.0198
     18 C         141.6255  141.5948  169.8140 C.2     1  UNL1        0.1745
     19 O         142.5693  140.8238  170.6885 O.2     1  UNL1       -0.2913
     20 C         140.4252  143.8989  169.7916 C.3     1  UNL1        0.0086
     21 C         140.6538  142.5594  170.4268 C.3     1  UNL1        0.0692
@<TRIPOS>BOND
     1    20    21    1
     2    21    18    1
     3    18    19    2
     4    18     1    1
     5     1     2   ar
     6     2     3   ar
     7     3    11    1
     8    11    12   ar
     9    12    13   ar
    10    13    14   ar
    11    14    15    1
    12    14    16   ar
    13    16    17   ar
    14     3     4   ar
    15     4     5   ar
    16     5     6   ar
    17     6     7   ar
    18     7     8    1
    19     7     9   ar
    20     9    10   ar
    21    10     1   ar
    22    17    11   ar
    23    10     4   ar
