@<TRIPOS>MOLECULE
*****
 34 38 0 0 0
SMALL
GASTEIGER

@<TRIPOS>ATOM
      1 C         139.5957  141.4542  165.9085 C.ar    1  UNL1        0.0906
      2 C         140.1665  142.3250  166.9883 C.ar    1  UNL1        0.1493
      3 O         140.0447  143.7528  166.5450 O.2     1  UNL1       -0.4534
      4 C         139.3987  143.7645  165.1913 C.ar    1  UNL1        0.1454
      5 C         139.0273  144.8851  164.2660 C.ar    1  UNL1        0.0406
      6 C         138.3783  144.5851  162.9474 C.ar    1  UNL1        0.0395
      7 C         138.1008  143.1645  162.5540 C.ar    1  UNL1        0.1311
      8 O         137.4518  142.8645  161.2353 O.3     1  UNL1       -0.5058
      9 C         138.4722  142.0438  163.4793 C.ar    1  UNL1        0.0308
     10 C         139.1211  142.3438  164.7979 C.ar    1  UNL1        0.0421
     11 H         137.2198  143.5646  160.6573 H       1  UNL1        0.2922
     12 C         140.7556  141.8512  168.2838 C.ar    1  UNL1        0.0310
     13 C         139.8556  141.4316  169.4080 C.ar    1  UNL1        0.0058
     14 C         140.4447  140.9578  170.7035 C.ar    1  UNL1        0.0367
     15 C         141.9338  140.9036  170.8749 C.ar    1  UNL1        0.1334
     16 O         142.5229  140.4298  172.1704 O.3     1  UNL1       -0.5055
     17 C         142.8339  141.3232  169.7507 C.ar    1  UNL1        0.0325
     18 C         142.2447  141.7970  168.4552 C.ar    1  UNL1       -0.0159
     19 C         143.1449  142.2166  167.3310 C.3     1  UNL1        0.0312
     20 H         141.9607  140.1676  172.8727 H       1  UNL1        0.2922
     21 C         138.1225  137.7845  166.2453 C.3     1  UNL1        0.1109
     22 N         138.2045  139.2820  166.2191 N.am    1  UNL1       -0.2991
     23 C         139.5137  139.9567  165.9347 C.2     1  UNL1        0.2490
     24 O         140.7409  139.1338  165.6766 O.2     1  UNL1       -0.2700
     25 H         137.3990  139.8221  166.3886 H       1  UNL1        0.1498
     26 C         138.1946  140.6232  163.0859 C.3     1  UNL1        0.1023
     27 N         139.3162  139.7393  162.6267 N.3     1  UNL1       -0.2687
     28 C         139.2910  138.2405  162.5700 C.3     1  UNL1        0.0726
     29 C         140.6191  137.7739  162.0518 C.3     1  UNL1        0.0235
     30 C         141.4651  138.9843  161.7882 C.3     1  UNL1        0.0707
     31 C         142.4760  140.0415  161.4560 C.3     1  UNL1        0.1458
     32 O         143.4514  138.9791  161.0437 O.3     1  UNL1       -0.3535
     33 C         142.4404  137.9220  161.3759 C.3     1  UNL1        0.1458
     34 C         140.6598  140.1990  162.1435 C.3     1  UNL1        0.0772
@<TRIPOS>BOND
     1    21    22    1
     2    22    23   am
     3    23    24    2
     4    23     1    1
     5     1     2   ar
     6     2    12    1
     7    12    13   ar
     8    13    14   ar
     9    14    15   ar
    10    15    16    1
    11    15    17   ar
    12    17    18   ar
    13    18    19    1
    14     2     3   ar
    15     3     4   ar
    16     4     5   ar
    17     5     6   ar
    18     6     7   ar
    19     7     8    1
    20     7     9   ar
    21     9    26    1
    22    26    27    1
    23    27    28    1
    24    28    29    1
    25    29    30    1
    26    30    31    1
    27    31    32    1
    28    32    33    1
    29    30    34    1
    30     9    10   ar
    31    10     1   ar
    32    18    12   ar
    33    10     4   ar
    34    34    27    1
    35    33    30    1
    36    22    25    1
    37    16    20    1
    38     8    11    1
@<TRIPOS>MOLECULE
*****
 34 38 0 0 0
SMALL
GASTEIGER

@<TRIPOS>ATOM
      1 C         142.2495  142.9784  165.3014 C.ar    1  UNL1        0.0906
      2 C         141.4781  142.6217  166.5375 C.ar    1  UNL1        0.1493
      3 O         140.0979  143.1937  166.4036 O.2     1  UNL1       -0.4534
      4 C         140.0163  143.9038  165.0849 C.ar    1  UNL1        0.1454
      5 C         138.9029  144.6544  164.4163 C.ar    1  UNL1        0.0406
      6 C         139.1193  145.2719  163.0666 C.ar    1  UNL1        0.0395
      7 C         140.4491  145.1389  162.3854 C.ar    1  UNL1        0.1311
      8 O         140.6654  145.7564  161.0356 O.3     1  UNL1       -0.5058
      9 C         141.5624  144.3883  163.0540 C.ar    1  UNL1        0.0308
     10 C         141.3460  143.7708  164.4037 C.ar    1  UNL1        0.0421
     11 H         139.9699  146.2253  160.6180 H       1  UNL1        0.2922
     12 C         141.9960  141.8318  167.7027 C.ar    1  UNL1        0.0310
     13 C         142.9078  142.4797  168.7021 C.ar    1  UNL1        0.0058
     14 C         143.4257  141.6898  169.8674 C.ar    1  UNL1        0.0367
     15 C         143.0317  140.2521  170.0333 C.ar    1  UNL1        0.1334
     16 O         143.5496  139.4622  171.1986 O.3     1  UNL1       -0.5055
     17 C         142.1199  139.6042  169.0339 C.ar    1  UNL1        0.0325
     18 C         141.6020  140.3941  167.8686 C.ar    1  UNL1       -0.0159
     19 C         140.6901  139.7461  166.8692 C.3     1  UNL1        0.0312
     20 H         144.1192  139.8669  171.8228 H       1  UNL1        0.2922
     21 C         145.4085  140.9798  163.9686 C.3     1  UNL1        0.1109
     22 N         143.9838  141.3504  164.2564 N.am    1  UNL1       -0.2991
     23 C         143.6742  142.6078  165.0137 C.2     1  UNL1        0.2490
     24 O         144.7893  143.4943  165.4830 O.2     1  UNL1       -0.2700
     25 H         143.2519  140.7685  163.9483 H       1  UNL1        0.1498
     26 C         142.8922  144.2552  162.3728 C.3     1  UNL1        0.1023
     27 N         143.1809  143.0562  161.5191 N.3     1  UNL1       -0.2687
     28 C         144.4855  142.7460  160.8467 C.3     1  UNL1        0.0726
     29 C         144.3267  141.4549  160.0999 C.3     1  UNL1        0.0235
     30 C         142.9239  140.9670  160.3106 C.3     1  UNL1        0.0707
     31 C         141.5836  140.2978  160.3851 C.3     1  UNL1        0.1458
     32 O         142.0882  139.1897  159.5089 O.3     1  UNL1       -0.3535
     33 C         143.4285  139.8591  159.4344 C.3     1  UNL1        0.1458
     34 C         142.2158  141.9567  161.1877 C.3     1  UNL1        0.0772
@<TRIPOS>BOND
     1    21    22    1
     2    22    23   am
     3    23    24    2
     4    23     1    1
     5     1     2   ar
     6     2    12    1
     7    12    13   ar
     8    13    14   ar
     9    14    15   ar
    10    15    16    1
    11    15    17   ar
    12    17    18   ar
    13    18    19    1
    14     2     3   ar
    15     3     4   ar
    16     4     5   ar
    17     5     6   ar
    18     6     7   ar
    19     7     8    1
    20     7     9   ar
    21     9    26    1
    22    26    27    1
    23    27    28    1
    24    28    29    1
    25    29    30    1
    26    30    31    1
    27    31    32    1
    28    32    33    1
    29    30    34    1
    30     9    10   ar
    31    10     1   ar
    32    18    12   ar
    33    10     4   ar
    34    34    27    1
    35    33    30    1
    36    22    25    1
    37    16    20    1
    38     8    11    1
@<TRIPOS>MOLECULE
*****
 34 38 0 0 0
SMALL
GASTEIGER

@<TRIPOS>ATOM
      1 C         141.5896  142.7515  165.4041 C.ar    1  UNL1        0.0906
      2 C         140.5249  142.9192  166.4473 C.ar    1  UNL1        0.1493
      3 O         139.4817  143.8475  165.8997 O.2     1  UNL1       -0.4534
      4 C         139.9016  144.2535  164.5181 C.ar    1  UNL1        0.1454
      5 C         139.2660  145.1525  163.4994 C.ar    1  UNL1        0.0406
      6 C         139.9332  145.3741  162.1744 C.ar    1  UNL1        0.0395
      7 C         141.2360  144.6967  161.8681 C.ar    1  UNL1        0.1311
      8 O         141.9032  144.9183  160.5430 O.3     1  UNL1       -0.5058
      9 C         141.8716  143.7977  162.8868 C.ar    1  UNL1        0.0308
     10 C         141.2044  143.5761  164.2118 C.ar    1  UNL1        0.0421
     11 H         141.5062  145.4799  159.9066 H       1  UNL1        0.2922
     12 C         140.5067  142.2722  167.8005 C.ar    1  UNL1        0.0310
     13 C         141.0345  143.0130  168.9931 C.ar    1  UNL1        0.0058
     14 C         141.0163  142.3660  170.3463 C.ar    1  UNL1        0.0367
     15 C         140.4701  140.9782  170.5068 C.ar    1  UNL1        0.1334
     16 O         140.4519  140.3313  171.8600 O.3     1  UNL1       -0.5055
     17 C         139.9423  140.2375  169.3141 C.ar    1  UNL1        0.0325
     18 C         139.9605  140.8844  167.9609 C.ar    1  UNL1       -0.0159
     19 C         139.4326  140.1436  166.7682 C.3     1  UNL1        0.0312
     20 H         140.7816  140.7940  172.6050 H       1  UNL1        0.2922
     21 C         143.9850  139.5872  165.3990 C.3     1  UNL1        0.1109
     22 N         142.7516  140.4314  165.2722 N.am    1  UNL1       -0.2991
     23 C         142.8230  141.9073  165.5309 C.2     1  UNL1        0.2490
     24 O         144.1278  142.5388  165.9164 O.2     1  UNL1       -0.2700
     25 H         141.8953  140.0168  165.0192 H       1  UNL1        0.1498
     26 C         143.1744  143.1203  162.5805 C.3     1  UNL1        0.1023
     27 N         143.1952  141.6668  162.2106 N.3     1  UNL1       -0.2687
     28 C         144.4204  140.8366  161.9661 C.3     1  UNL1        0.0726
     29 C         143.9769  139.4449  161.6246 C.3     1  UNL1        0.0235
     30 C         142.4775  139.4150  161.6580 C.3     1  UNL1        0.0707
     31 C         141.0000  139.1581  161.6331 C.3     1  UNL1        0.1458
     32 O         141.2550  137.7271  161.2625 O.3     1  UNL1       -0.3535
     33 C         142.7326  137.9841  161.2874 C.3     1  UNL1        0.1458
     34 C         141.9944  140.7882  162.0201 C.3     1  UNL1        0.0772
@<TRIPOS>BOND
     1    21    22    1
     2    22    23   am
     3    23    24    2
     4    23     1    1
     5     1     2   ar
     6     2    12    1
     7    12    13   ar
     8    13    14   ar
     9    14    15   ar
    10    15    16    1
    11    15    17   ar
    12    17    18   ar
    13    18    19    1
    14     2     3   ar
    15     3     4   ar
    16     4     5   ar
    17     5     6   ar
    18     6     7   ar
    19     7     8    1
    20     7     9   ar
    21     9    26    1
    22    26    27    1
    23    27    28    1
    24    28    29    1
    25    29    30    1
    26    30    31    1
    27    31    32    1
    28    32    33    1
    29    30    34    1
    30     9    10   ar
    31    10     1   ar
    32    18    12   ar
    33    10     4   ar
    34    34    27    1
    35    33    30    1
    36    22    25    1
    37    16    20    1
    38     8    11    1
@<TRIPOS>MOLECULE
*****
 34 38 0 0 0
SMALL
GASTEIGER

@<TRIPOS>ATOM
      1 C         140.2878  141.3170  165.4265 C.ar    1  UNL1        0.0906
      2 C         140.5122  141.9960  166.7451 C.ar    1  UNL1        0.1493
      3 O         139.8366  143.3344  166.6981 O.2     1  UNL1       -0.4534
      4 C         139.1946  143.4826  165.3506 C.ar    1  UNL1        0.1454
      5 C         138.3922  144.5918  164.7376 C.ar    1  UNL1        0.0406
      6 C         137.8687  144.4542  163.3387 C.ar    1  UNL1        0.0395
      7 C         138.1476  143.2074  162.5528 C.ar    1  UNL1        0.1311
      8 O         137.6240  143.0698  161.1538 O.3     1  UNL1       -0.5058
      9 C         138.9500  142.0982  163.1658 C.ar    1  UNL1        0.0308
     10 C         139.4735  142.2358  164.5646 C.ar    1  UNL1        0.0421
     11 H         137.1227  143.7627  160.7709 H       1  UNL1        0.2922
     12 C         141.2777  141.4351  167.9067 C.ar    1  UNL1        0.0310
     13 C         142.6621  141.9311  168.2023 C.ar    1  UNL1        0.0058
     14 C         143.4277  141.3701  169.3639 C.ar    1  UNL1        0.0367
     15 C         142.8089  140.3132  170.2298 C.ar    1  UNL1        0.1334
     16 O         143.5744  139.7522  171.3914 O.3     1  UNL1       -0.5055
     17 C         141.4245  139.8171  169.9342 C.ar    1  UNL1        0.0325
     18 C         140.6590  140.3781  168.7726 C.ar    1  UNL1       -0.0159
     19 C         139.2745  139.8820  168.4770 C.3     1  UNL1        0.0312
     20 H         144.4392  140.0621  171.5761 H       1  UNL1        0.2922
     21 C         142.6272  138.4549  163.9822 C.3     1  UNL1        0.1109
     22 N         142.1254  139.8140  164.3707 N.am    1  UNL1       -0.2991
     23 C         140.7896  139.9579  165.0380 C.2     1  UNL1        0.2490
     24 O         139.9558  138.7426  165.3166 O.2     1  UNL1       -0.2700
     25 H         142.6727  140.6117  164.1878 H       1  UNL1        0.1498
     26 C         139.2289  140.8514  162.3798 C.3     1  UNL1        0.1023
     27 N         140.5085  140.7217  161.6081 N.3     1  UNL1       -0.2687
     28 C         141.5699  141.7737  161.4776 C.3     1  UNL1        0.0726
     29 C         142.6689  141.2195  160.6202 C.3     1  UNL1        0.0235
     30 C         142.2868  139.8250  160.2209 C.3     1  UNL1        0.0707
     31 C         142.1096  138.4275  159.7058 C.3     1  UNL1        0.1458
     32 O         143.4334  138.5176  159.0060 O.3     1  UNL1       -0.3535
     33 C         143.6105  139.9152  159.5212 C.3     1  UNL1        0.1458
     34 C         140.9516  139.5174  160.8314 C.3     1  UNL1        0.0772
@<TRIPOS>BOND
     1    21    22    1
     2    22    23   am
     3    23    24    2
     4    23     1    1
     5     1     2   ar
     6     2    12    1
     7    12    13   ar
     8    13    14   ar
     9    14    15   ar
    10    15    16    1
    11    15    17   ar
    12    17    18   ar
    13    18    19    1
    14     2     3   ar
    15     3     4   ar
    16     4     5   ar
    17     5     6   ar
    18     6     7   ar
    19     7     8    1
    20     7     9   ar
    21     9    26    1
    22    26    27    1
    23    27    28    1
    24    28    29    1
    25    29    30    1
    26    30    31    1
    27    31    32    1
    28    32    33    1
    29    30    34    1
    30     9    10   ar
    31    10     1   ar
    32    18    12   ar
    33    10     4   ar
    34    34    27    1
    35    33    30    1
    36    22    25    1
    37    16    20    1
    38     8    11    1
@<TRIPOS>MOLECULE
*****
 34 38 0 0 0
SMALL
GASTEIGER

@<TRIPOS>ATOM
      1 C         140.3653  141.4149  165.4813 C.ar    1  UNL1        0.0906
      2 C         140.5658  142.0690  166.8162 C.ar    1  UNL1        0.1493
      3 O         139.8447  143.3842  166.8007 O.2     1  UNL1       -0.4534
      4 C         139.1987  143.5430  165.4563 C.ar    1  UNL1        0.1454
      5 C         138.3590  144.6386  164.8693 C.ar    1  UNL1        0.0406
      6 C         137.8411  144.5170  163.4669 C.ar    1  UNL1        0.0395
      7 C         138.1629  143.2999  162.6514 C.ar    1  UNL1        0.1311
      8 O         137.6449  143.1783  161.2489 O.3     1  UNL1       -0.5058
      9 C         139.0025  142.2043  163.2384 C.ar    1  UNL1        0.0308
     10 C         139.5205  142.3258  164.6408 C.ar    1  UNL1        0.0421
     11 H         137.1204  143.8627  160.8822 H       1  UNL1        0.2922
     12 C         141.3496  141.5066  167.9648 C.ar    1  UNL1        0.0310
     13 C         142.7202  142.0354  168.2678 C.ar    1  UNL1        0.0058
     14 C         143.5040  141.4730  169.4165 C.ar    1  UNL1        0.0367
     15 C         142.9172  140.3818  170.2620 C.ar    1  UNL1        0.1334
     16 O         143.7011  139.8195  171.4107 O.3     1  UNL1       -0.5055
     17 C         141.5467  139.8531  169.9590 C.ar    1  UNL1        0.0325
     18 C         140.7629  140.4155  168.8104 C.ar    1  UNL1       -0.0159
     19 C         139.3922  139.8866  168.5074 C.3     1  UNL1        0.0312
     20 H         144.5572  140.1498  171.6000 H       1  UNL1        0.2922
     21 C         142.7977  138.6712  163.9626 C.3     1  UNL1        0.1109
     22 N         142.2495  140.0026  164.3832 N.am    1  UNL1       -0.2991
     23 C         140.9136  140.0835  165.0606 C.2     1  UNL1        0.2490
     24 O         140.1260  138.8331  165.3173 O.2     1  UNL1       -0.2700
     25 H         142.7665  140.8233  164.2147 H       1  UNL1        0.1498
     26 C         139.3243  140.9871  162.4229 C.3     1  UNL1        0.1023
     27 N         140.5976  140.9292  161.6322 N.3     1  UNL1       -0.2687
     28 C         141.1187  139.7368  160.8860 C.3     1  UNL1        0.0726
     29 C         142.4166  140.1241  160.2414 C.3     1  UNL1        0.0235
     30 C         142.6977  141.5559  160.5893 C.3     1  UNL1        0.0707
     31 C         143.1746  142.9610  160.8091 C.3     1  UNL1        0.1458
     32 O         144.3883  142.6798  159.9737 O.3     1  UNL1       -0.3535
     33 C         143.9114  141.2747  159.7539 C.3     1  UNL1        0.1458
     34 C         141.5735  142.0535  161.4488 C.3     1  UNL1        0.0772
@<TRIPOS>BOND
     1    21    22    1
     2    22    23   am
     3    23    24    2
     4    23     1    1
     5     1     2   ar
     6     2    12    1
     7    12    13   ar
     8    13    14   ar
     9    14    15   ar
    10    15    16    1
    11    15    17   ar
    12    17    18   ar
    13    18    19    1
    14     2     3   ar
    15     3     4   ar
    16     4     5   ar
    17     5     6   ar
    18     6     7   ar
    19     7     8    1
    20     7     9   ar
    21     9    26    1
    22    26    27    1
    23    27    28    1
    24    28    29    1
    25    29    30    1
    26    30    31    1
    27    31    32    1
    28    32    33    1
    29    30    34    1
    30     9    10   ar
    31    10     1   ar
    32    18    12   ar
    33    10     4   ar
    34    34    27    1
    35    33    30    1
    36    22    25    1
    37    16    20    1
    38     8    11    1
@<TRIPOS>MOLECULE
*****
 34 38 0 0 0
SMALL
GASTEIGER

@<TRIPOS>ATOM
      1 C         139.7655  140.6276  165.0928 C.ar    1  UNL1        0.0906
      2 C         139.7205  139.5980  166.1827 C.ar    1  UNL1        0.1493
      3 O         139.3647  138.2801  165.5609 O.2     1  UNL1       -0.4534
      4 C         139.1899  138.4952  164.0867 C.ar    1  UNL1        0.1454
      5 C         138.8372  137.5574  162.9705 C.ar    1  UNL1        0.0406
      6 C         138.7321  138.0705  161.5649 C.ar    1  UNL1        0.0395
      7 C         138.9798  139.5213  161.2756 C.ar    1  UNL1        0.1311
      8 O         138.8748  140.0344  159.8699 O.3     1  UNL1       -0.5058
      9 C         139.3326  140.4591  162.3919 C.ar    1  UNL1        0.0308
     10 C         139.4376  139.9460  163.7974 C.ar    1  UNL1        0.0421
     11 H         138.6544  139.4486  159.1726 H       1  UNL1        0.2922
     12 C         139.9848  139.8432  167.6387 C.ar    1  UNL1        0.0310
     13 C         138.8421  140.1026  168.5751 C.ar    1  UNL1        0.0058
     14 C         139.1064  140.3478  170.0312 C.ar    1  UNL1        0.0367
     15 C         140.5134  140.3336  170.5508 C.ar    1  UNL1        0.1334
     16 O         140.7777  140.5788  172.0068 O.3     1  UNL1       -0.5055
     17 C         141.6561  140.0742  169.6144 C.ar    1  UNL1        0.0325
     18 C         141.3918  139.8290  168.1584 C.ar    1  UNL1       -0.0159
     19 C         142.5346  139.5696  167.2220 C.3     1  UNL1        0.0312
     20 H         140.0639  140.7408  172.5918 H       1  UNL1        0.2922
     21 C         139.3022  144.5589  165.3761 C.3     1  UNL1        0.1109
     22 N         138.9850  143.1033  165.2013 N.am    1  UNL1       -0.2991
     23 C         140.0828  142.0832  165.2676 C.2     1  UNL1        0.2490
     24 O         141.4977  142.5188  165.5086 O.2     1  UNL1       -0.2700
     25 H         138.0563  142.8175  165.0431 H       1  UNL1        0.1498
     26 C         139.5803  141.9100  162.1026 C.3     1  UNL1        0.1023
     27 N         140.9819  142.4441  162.0926 N.3     1  UNL1       -0.2687
     28 C         141.3739  143.8919  162.1094 C.3     1  UNL1        0.0726
     29 C         142.8719  143.9668  162.0912 C.3     1  UNL1        0.0235
     30 C         143.4058  142.5653  162.0631 C.3     1  UNL1        0.0707
     31 C         144.1523  141.2646  162.0337 C.3     1  UNL1        0.1458
     32 O         145.4533  142.0114  162.0282 O.3     1  UNL1       -0.3535
     33 C         144.7066  143.3121  162.0576 C.3     1  UNL1        0.1458
     34 C         142.2377  141.6242  162.0639 C.3     1  UNL1        0.0772
@<TRIPOS>BOND
     1    21    22    1
     2    22    23   am
     3    23    24    2
     4    23     1    1
     5     1     2   ar
     6     2    12    1
     7    12    13   ar
     8    13    14   ar
     9    14    15   ar
    10    15    16    1
    11    15    17   ar
    12    17    18   ar
    13    18    19    1
    14     2     3   ar
    15     3     4   ar
    16     4     5   ar
    17     5     6   ar
    18     6     7   ar
    19     7     8    1
    20     7     9   ar
    21     9    26    1
    22    26    27    1
    23    27    28    1
    24    28    29    1
    25    29    30    1
    26    30    31    1
    27    31    32    1
    28    32    33    1
    29    30    34    1
    30     9    10   ar
    31    10     1   ar
    32    18    12   ar
    33    10     4   ar
    34    34    27    1
    35    33    30    1
    36    22    25    1
    37    16    20    1
    38     8    11    1
@<TRIPOS>MOLECULE
*****
 34 38 0 0 0
SMALL
GASTEIGER

@<TRIPOS>ATOM
      1 C         139.8984  141.5391  165.2306 C.ar    1  UNL1        0.0906
      2 C         140.4020  140.8485  166.4632 C.ar    1  UNL1        0.1493
      3 O         140.1006  139.3851  166.3304 O.2     1  UNL1       -0.4534
      4 C         139.4107  139.1713  165.0157 C.ar    1  UNL1        0.1454
      5 C         138.8801  137.9365  164.3497 C.ar    1  UNL1        0.0406
      6 C         138.2247  138.0329  163.0040 C.ar    1  UNL1        0.0395
      7 C         138.0997  139.3642  162.3243 C.ar    1  UNL1        0.1311
      8 O         137.4442  139.4606  160.9785 O.3     1  UNL1       -0.5058
      9 C         138.6303  140.5991  162.9902 C.ar    1  UNL1        0.0308
     10 C         139.2858  140.5026  164.3359 C.ar    1  UNL1        0.0421
     11 H         137.1128  138.6892  160.5624 H       1  UNL1        0.2922
     12 C         141.0868  141.5058  167.6247 C.ar    1  UNL1        0.0310
     13 C         140.3001  141.8784  168.8462 C.ar    1  UNL1        0.0058
     14 C         140.9849  142.5357  170.0077 C.ar    1  UNL1        0.0367
     15 C         142.4563  142.8204  169.9476 C.ar    1  UNL1        0.1334
     16 O         143.1411  143.4776  171.1091 O.3     1  UNL1       -0.5055
     17 C         143.2430  142.4477  168.7261 C.ar    1  UNL1        0.0325
     18 C         142.5583  141.7904  167.5646 C.ar    1  UNL1       -0.0159
     19 C         143.3451  141.4178  166.3430 C.3     1  UNL1        0.0312
     20 H         142.6497  143.7104  171.8722 H       1  UNL1        0.2922
     21 C         141.2466  145.0174  163.8762 C.3     1  UNL1        0.1109
     22 N         141.1538  143.5482  164.1637 N.am    1  UNL1       -0.2991
     23 C         139.9912  143.0084  164.9430 C.2     1  UNL1        0.2490
     24 O         138.9216  143.9379  165.4345 O.2     1  UNL1       -0.2700
     25 H         141.8559  142.9381  163.8411 H       1  UNL1        0.1498
     26 C         138.5054  141.9304  162.3105 C.3     1  UNL1        0.1023
     27 N         139.6183  142.4361  161.4413 N.3     1  UNL1       -0.2687
     28 C         140.8232  141.6547  161.0079 C.3     1  UNL1        0.0726
     29 C         141.6714  142.5476  160.1516 C.3     1  UNL1        0.0235
     30 C         140.9908  143.8809  160.0557 C.3     1  UNL1        0.0707
     31 C         140.4926  145.2767  159.8250 C.3     1  UNL1        0.1458
     32 O         141.6984  145.5677  158.9815 O.3     1  UNL1       -0.3535
     33 C         142.1965  144.1717  159.2122 C.3     1  UNL1        0.1458
     34 C         139.7219  143.8119  160.8528 C.3     1  UNL1        0.0772
@<TRIPOS>BOND
     1    21    22    1
     2    22    23   am
     3    23    24    2
     4    23     1    1
     5     1     2   ar
     6     2    12    1
     7    12    13   ar
     8    13    14   ar
     9    14    15   ar
    10    15    16    1
    11    15    17   ar
    12    17    18   ar
    13    18    19    1
    14     2     3   ar
    15     3     4   ar
    16     4     5   ar
    17     5     6   ar
    18     6     7   ar
    19     7     8    1
    20     7     9   ar
    21     9    26    1
    22    26    27    1
    23    27    28    1
    24    28    29    1
    25    29    30    1
    26    30    31    1
    27    31    32    1
    28    32    33    1
    29    30    34    1
    30     9    10   ar
    31    10     1   ar
    32    18    12   ar
    33    10     4   ar
    34    34    27    1
    35    33    30    1
    36    22    25    1
    37    16    20    1
    38     8    11    1
@<TRIPOS>MOLECULE
*****
 34 38 0 0 0
SMALL
GASTEIGER

@<TRIPOS>ATOM
      1 C         142.4575  140.0917  165.2620 C.ar    1  UNL1        0.0906
      2 C         142.7626  140.9550  166.4500 C.ar    1  UNL1        0.1493
      3 O         143.7490  142.0009  166.0219 O.2     1  UNL1       -0.4534
      4 C         144.0534  141.7839  164.5692 C.ar    1  UNL1        0.1454
      5 C         144.9543  142.5083  163.6134 C.ar    1  UNL1        0.0406
      6 C         145.0570  142.0528  162.1880 C.ar    1  UNL1        0.0395
      7 C         144.2588  140.8729  161.7183 C.ar    1  UNL1        0.1311
      8 O         144.3615  140.4173  160.2928 O.3     1  UNL1       -0.5058
      9 C         143.3579  140.1484  162.6741 C.ar    1  UNL1        0.0308
     10 C         143.2552  140.6040  164.0995 C.ar    1  UNL1        0.0421
     11 H         144.9243  140.8699  159.6958 H       1  UNL1        0.2922
     12 C         142.1832  140.7998  167.8249 C.ar    1  UNL1        0.0310
     13 C         142.7127  139.7416  168.7468 C.ar    1  UNL1        0.0058
     14 C         142.1332  139.5864  170.1216 C.ar    1  UNL1        0.0367
     15 C         141.0243  140.4892  170.5745 C.ar    1  UNL1        0.1334
     16 O         140.4449  140.3340  171.9494 O.3     1  UNL1       -0.5055
     17 C         140.4949  141.5474  169.6526 C.ar    1  UNL1        0.0325
     18 C         141.0743  141.7026  168.2778 C.ar    1  UNL1       -0.0159
     19 C         140.5448  142.7608  167.3558 C.3     1  UNL1        0.0312
     20 H         140.7757  139.6730  172.5253 H       1  UNL1        0.2922
     21 C         139.0990  137.9789  165.1748 C.3     1  UNL1        0.1109
     22 N         140.0372  139.1491  165.1966 N.am    1  UNL1       -0.2991
     23 C         141.5193  138.9215  165.2401 C.2     1  UNL1        0.2490
     24 O         142.0630  137.5238  165.2617 O.2     1  UNL1       -0.2700
     25 H         139.6803  140.0665  165.1824 H       1  UNL1        0.1498
     26 C         142.5597  138.9685  162.2044 C.3     1  UNL1        0.1023
     27 N         141.0881  139.1111  161.9518 N.3     1  UNL1       -0.2687
     28 C         140.1383  137.9982  161.6209 C.3     1  UNL1        0.0726
     29 C         138.7710  138.5909  161.4503 C.3     1  UNL1        0.0235
     30 C         138.8756  140.0702  161.6758 C.3     1  UNL1        0.0707
     31 C         138.7488  141.5536  161.8590 C.3     1  UNL1        0.1458
     32 O         137.2789  141.4631  161.5742 O.3     1  UNL1       -0.3535
     33 C         137.4058  139.9797  161.3910 C.3     1  UNL1        0.1458
     34 C         140.3077  140.3917  161.9857 C.3     1  UNL1        0.0772
@<TRIPOS>BOND
     1    21    22    1
     2    22    23   am
     3    23    24    2
     4    23     1    1
     5     1     2   ar
     6     2    12    1
     7    12    13   ar
     8    13    14   ar
     9    14    15   ar
    10    15    16    1
    11    15    17   ar
    12    17    18   ar
    13    18    19    1
    14     2     3   ar
    15     3     4   ar
    16     4     5   ar
    17     5     6   ar
    18     6     7   ar
    19     7     8    1
    20     7     9   ar
    21     9    26    1
    22    26    27    1
    23    27    28    1
    24    28    29    1
    25    29    30    1
    26    30    31    1
    27    31    32    1
    28    32    33    1
    29    30    34    1
    30     9    10   ar
    31    10     1   ar
    32    18    12   ar
    33    10     4   ar
    34    34    27    1
    35    33    30    1
    36    22    25    1
    37    16    20    1
    38     8    11    1
@<TRIPOS>MOLECULE
*****
 34 38 0 0 0
SMALL
GASTEIGER

@<TRIPOS>ATOM
      1 C         141.4027  142.0574  165.2088 C.ar    1  UNL1        0.0906
      2 C         141.0335  142.3119  166.6402 C.ar    1  UNL1        0.1493
      3 O         139.9187  143.3152  166.6600 O.2     1  UNL1       -0.4534
      4 C         139.5989  143.6809  165.2408 C.ar    1  UNL1        0.1454
      5 C         138.5910  144.6213  164.6494 C.ar    1  UNL1        0.0406
      6 C         138.5004  144.7843  163.1611 C.ar    1  UNL1        0.0395
      7 C         139.4176  144.0070  162.2642 C.ar    1  UNL1        0.1311
      8 O         139.3269  144.1700  160.7758 O.3     1  UNL1       -0.5058
      9 C         140.4254  143.0666  162.8556 C.ar    1  UNL1        0.0308
     10 C         140.5161  142.9035  164.3439 C.ar    1  UNL1        0.0421
     11 H         138.6973  144.7575  160.4063 H       1  UNL1        0.2922
     12 C         141.6678  141.6748  167.8410 C.ar    1  UNL1        0.0310
     13 C         142.8958  142.2822  168.4515 C.ar    1  UNL1        0.0058
     14 C         143.5301  141.6452  169.6523 C.ar    1  UNL1        0.0367
     15 C         142.9363  140.4006  170.2426 C.ar    1  UNL1        0.1334
     16 O         143.5705  139.7636  171.4433 O.3     1  UNL1       -0.5055
     17 C         141.7082  139.7932  169.6321 C.ar    1  UNL1        0.0325
     18 C         141.0739  140.4303  168.4313 C.ar    1  UNL1       -0.0159
     19 C         139.8458  139.8227  167.8208 C.3     1  UNL1        0.0312
     20 H         144.3377  140.1430  171.8247 H       1  UNL1        0.2922
     21 C         144.9628  140.6509  164.1610 C.3     1  UNL1        0.1109
     22 N         143.8945  141.5871  164.6429 N.am    1  UNL1       -0.2991
     23 C         142.4710  141.1213  164.7269 C.2     1  UNL1        0.2490
     24 O         142.1161  139.7194  164.3288 O.2     1  UNL1       -0.2700
     25 H         144.1275  142.5072  164.9042 H       1  UNL1        0.1498
     26 C         141.3427  142.2892  161.9587 C.3     1  UNL1        0.1023
     27 N         140.7940  141.1952  161.0915 N.3     1  UNL1       -0.2687
     28 C         139.6733  140.2646  161.4494 C.3     1  UNL1        0.0726
     29 C         139.4563  139.3339  160.2932 C.3     1  UNL1        0.0235
     30 C         140.4429  139.6894  159.2206 C.3     1  UNL1        0.0707
     31 C         141.3315  139.8693  158.0257 C.3     1  UNL1        0.1458
     32 O         140.6352  138.7332  157.3368 O.3     1  UNL1       -0.3535
     33 C         139.7466  138.5533  158.5319 C.3     1  UNL1        0.1458
     34 C         141.2696  140.8397  159.7140 C.3     1  UNL1        0.0772
@<TRIPOS>BOND
     1    21    22    1
     2    22    23   am
     3    23    24    2
     4    23     1    1
     5     1     2   ar
     6     2    12    1
     7    12    13   ar
     8    13    14   ar
     9    14    15   ar
    10    15    16    1
    11    15    17   ar
    12    17    18   ar
    13    18    19    1
    14     2     3   ar
    15     3     4   ar
    16     4     5   ar
    17     5     6   ar
    18     6     7   ar
    19     7     8    1
    20     7     9   ar
    21     9    26    1
    22    26    27    1
    23    27    28    1
    24    28    29    1
    25    29    30    1
    26    30    31    1
    27    31    32    1
    28    32    33    1
    29    30    34    1
    30     9    10   ar
    31    10     1   ar
    32    18    12   ar
    33    10     4   ar
    34    34    27    1
    35    33    30    1
    36    22    25    1
    37    16    20    1
    38     8    11    1
