@<TRIPOS>MOLECULE
*****
 40 44 0 0 0
SMALL
GASTEIGER

@<TRIPOS>ATOM
      1 C         138.4373  140.1367  158.6387 C.3     1  UNL1        0.1035
      2 C         138.2365  139.5600  160.0088 C.3     1  UNL1        0.0933
      3 N         139.6672  139.8600  160.3448 N.3     1  UNL1       -0.2711
      4 C         139.8681  140.4367  158.9748 C.3     1  UNL1        0.0933
      5 C         140.5370  139.6643  161.5511 C.3     1  UNL1        0.0578
      6 C         141.6461  138.6549  161.5202 C.3     1  UNL1        0.0188
      7 C         142.5159  138.4592  162.7266 C.3     1  UNL1        0.0346
      8 C         142.2766  139.2729  163.9637 C.3     1  UNL1        0.1288
      9 O         143.4433  138.4464  164.4172 O.3     1  UNL1       -0.3807
     10 C         141.1675  140.2823  163.9946 C.3     1  UNL1        0.0346
     11 C         140.2977  140.4780  162.7883 C.3     1  UNL1        0.0188
     12 H         143.7175  137.8533  163.7003 H       1  UNL1        0.2108
     13 C         142.4425  139.7995  165.3584 C.ar    1  UNL1        0.1123
     14 N         142.2980  139.0065  166.6233 N.ar    1  UNL1       -0.2404
     15 C         142.5482  139.9285  167.7797 C.ar    1  UNL1        0.0876
     16 C         142.5424  139.7031  169.2627 C.ar    1  UNL1        0.0196
     17 C         142.8355  140.8407  170.1953 C.ar    1  UNL1        0.0016
     18 C         143.1346  142.2037  169.6450 C.ar    1  UNL1        0.0006
     19 C         143.1405  142.4291  168.1621 C.ar    1  UNL1        0.0080
     20 C         142.8473  141.2915  167.2295 C.ar    1  UNL1        0.0482
     21 S         142.7819  141.2118  165.7330 S.2     1  UNL1       -0.0685
     22 O         137.9904  142.8934  157.5430 O.2     1  UNL1       -0.2733
     23 C         137.3442  141.7108  156.8845 C.2     1  UNL1        0.2426
     24 N         137.5676  140.3324  157.4323 N.am    1  UNL1       -0.3018
     25 H         137.1435  139.5562  157.0001 H       1  UNL1        0.1495
     26 C         136.4744  141.9065  155.6781 C.3     1  UNL1        0.1759
     27 N         134.9813  141.8653  155.8153 N.am    1  UNL1       -0.2931
     28 C         134.2676  140.5464  155.8506 C.2     1  UNL1        0.2462
     29 O         135.0470  139.2689  155.7487 O.2     1  UNL1       -0.2701
     30 H         134.4698  142.7038  155.8822 H       1  UNL1        0.1502
     31 C         132.7744  140.5051  155.9878 C.ar    1  UNL1        0.0533
     32 C         131.9315  141.5573  155.3304 C.ar    1  UNL1        0.0045
     33 C         130.4384  141.5161  155.4676 C.ar    1  UNL1        0.0001
     34 C         129.7882  140.4226  156.2624 C.ar    1  UNL1        0.0039
     35 C         130.6311  139.3704  156.9198 C.ar    1  UNL1        0.0716
     36 C         132.1242  139.4116  156.7826 C.ar    1  UNL1        0.0084
     37 C         129.9809  138.2769  157.7146 C.3     1  UNL1        0.4186
     38 F         129.3308  137.1835  158.5092 F       1  UNL1       -0.1659
     39 F         129.7453  139.2370  158.8427 F       1  UNL1       -0.1659
     40 F         130.2166  137.3168  156.5864 F       1  UNL1       -0.1659
@<TRIPOS>BOND
     1    22    23    2
     2    23    26    1
     3    26    27    1
     4    27    28   am
     5    28    29    2
     6    28    31    1
     7    31    32   ar
     8    32    33   ar
     9    33    34   ar
    10    34    35   ar
    11    35    37    1
    12    37    38    1
    13    37    39    1
    14    37    40    1
    15    35    36   ar
    16    23    24   am
    17    24     1    1
    18     1     2    1
    19     2     3    1
    20     5     3    1
    21     5     6    1
    22     6     7    1
    23     7     8    1
    24     8     9    1
    25     8    13    1
    26    13    14   ar
    27    14    15   ar
    28    15    16   ar
    29    16    17   ar
    30    17    18   ar
    31    18    19   ar
    32    19    20   ar
    33    20    21   ar
    34     8    10    1
    35    10    11    1
    36     3     4    1
    37    36    31   ar
    38     4     1    1
    39    11     5    1
    40    21    13   ar
    41    20    15   ar
    42    27    30    1
    43    24    25    1
    44     9    12    1
@<TRIPOS>MOLECULE
*****
 40 44 0 0 0
SMALL
GASTEIGER

@<TRIPOS>ATOM
      1 C         138.5079  141.9405  158.8799 C.3     1  UNL1        0.1035
      2 C         139.7891  142.4701  159.4527 C.3     1  UNL1        0.0933
      3 N         139.7715  141.3886  160.4919 N.3     1  UNL1       -0.2711
      4 C         138.4903  140.8590  159.9191 C.3     1  UNL1        0.0933
      5 C         140.6649  140.9983  161.6318 C.3     1  UNL1        0.0578
      6 C         141.8749  140.1484  161.3793 C.3     1  UNL1        0.0188
      7 C         142.7684  139.7580  162.5192 C.3     1  UNL1        0.0346
      8 C         142.4520  140.2175  163.9115 C.3     1  UNL1        0.1288
      9 O         143.7029  139.4325  164.1743 O.3     1  UNL1       -0.3807
     10 C         141.2421  141.0674  164.1640 C.3     1  UNL1        0.0346
     11 C         140.3486  141.4578  163.0242 C.3     1  UNL1        0.0188
     12 H         144.0339  139.0632  163.3406 H       1  UNL1        0.2108
     13 C         142.5700  140.4044  165.3951 C.ar    1  UNL1        0.1123
     14 N         142.8856  141.6906  166.0994 N.ar    1  UNL1       -0.2404
     15 C         142.9038  141.4190  167.5745 C.ar    1  UNL1        0.0876
     16 C         143.1582  142.3079  168.7556 C.ar    1  UNL1        0.0196
     17 C         143.1082  141.7427  170.1442 C.ar    1  UNL1        0.0016
     18 C         142.8038  140.2887  170.3515 C.ar    1  UNL1        0.0006
     19 C         142.5494  139.3998  169.1704 C.ar    1  UNL1        0.0080
     20 C         142.5994  139.9649  167.7819 C.ar    1  UNL1        0.0482
     21 S         142.3931  139.3379  166.4350 S.2     1  UNL1       -0.0685
     22 O         137.8943  139.9622  156.7097 O.2     1  UNL1       -0.2733
     23 C         137.3076  141.3416  156.6549 C.2     1  UNL1        0.2426
     24 N         137.6144  142.3308  157.7400 N.am    1  UNL1       -0.3018
     25 H         137.2293  143.2361  157.7040 H       1  UNL1        0.1495
     26 C         136.4141  141.7319  155.5150 C.3     1  UNL1        0.1759
     27 N         134.9248  141.7263  155.6935 N.am    1  UNL1       -0.2931
     28 C         134.1770  140.4261  155.7158 C.2     1  UNL1        0.2462
     29 O         134.9186  139.1317  155.5596 O.2     1  UNL1       -0.2701
     30 H         134.4381  142.5759  155.7961 H       1  UNL1        0.1502
     31 C         132.6877  140.4205  155.8944 C.ar    1  UNL1        0.0533
     32 C         131.8567  141.5181  155.2988 C.ar    1  UNL1        0.0045
     33 C         130.3674  141.5124  155.4774 C.ar    1  UNL1        0.0001
     34 C         129.7090  140.4092  156.2516 C.ar    1  UNL1        0.0039
     35 C         130.5400  139.3116  156.8472 C.ar    1  UNL1        0.0716
     36 C         132.0293  139.3172  156.6686 C.ar    1  UNL1        0.0084
     37 C         129.8816  138.2083  157.6214 C.3     1  UNL1        0.4186
     38 F         129.2233  137.1051  158.3956 F       1  UNL1       -0.1659
     39 F         129.8847  139.0687  158.8501 F       1  UNL1       -0.1659
     40 F         129.8785  137.3479  156.3927 F       1  UNL1       -0.1659
@<TRIPOS>BOND
     1    22    23    2
     2    23    26    1
     3    26    27    1
     4    27    28   am
     5    28    29    2
     6    28    31    1
     7    31    32   ar
     8    32    33   ar
     9    33    34   ar
    10    34    35   ar
    11    35    37    1
    12    37    38    1
    13    37    39    1
    14    37    40    1
    15    35    36   ar
    16    23    24   am
    17    24     1    1
    18     1     2    1
    19     2     3    1
    20     5     3    1
    21     5     6    1
    22     6     7    1
    23     7     8    1
    24     8     9    1
    25     8    13    1
    26    13    14   ar
    27    14    15   ar
    28    15    16   ar
    29    16    17   ar
    30    17    18   ar
    31    18    19   ar
    32    19    20   ar
    33    20    21   ar
    34     8    10    1
    35    10    11    1
    36     3     4    1
    37    36    31   ar
    38     4     1    1
    39    11     5    1
    40    21    13   ar
    41    20    15   ar
    42    27    30    1
    43    24    25    1
    44     9    12    1
@<TRIPOS>MOLECULE
*****
 40 44 0 0 0
SMALL
GASTEIGER

@<TRIPOS>ATOM
      1 C         141.1621  138.6718  159.1605 C.3     1  UNL1        0.1035
      2 C         140.2099  138.4566  160.2993 C.3     1  UNL1        0.0933
      3 N         140.7140  139.7069  160.9571 N.3     1  UNL1       -0.2711
      4 C         141.6662  139.9221  159.8183 C.3     1  UNL1        0.0933
      5 C         140.3971  140.4389  162.2274 C.3     1  UNL1        0.0578
      6 C         139.5905  141.7028  162.1834 C.3     1  UNL1        0.0188
      7 C         139.2736  142.4349  163.4537 C.3     1  UNL1        0.0346
      8 C         139.7634  141.9031  164.7680 C.3     1  UNL1        0.1288
      9 O         139.0396  143.1303  165.2370 O.3     1  UNL1       -0.3807
     10 C         140.5700  140.6393  164.8120 C.3     1  UNL1        0.0346
     11 C         140.8869  139.9072  163.5416 C.3     1  UNL1        0.0188
     12 H         138.6581  143.5922  164.4741 H       1  UNL1        0.2108
     13 C         140.0018  141.7975  166.2451 C.ar    1  UNL1        0.1123
     14 N         140.3798  142.9245  167.1600 N.ar    1  UNL1       -0.2404
     15 C         140.5156  142.3699  168.5471 C.ar    1  UNL1        0.0876
     16 C         140.8691  143.0134  169.8551 C.ar    1  UNL1        0.0196
     17 C         140.9285  142.1870  171.1056 C.ar    1  UNL1        0.0016
     18 C         140.6346  140.7173  171.0479 C.ar    1  UNL1        0.0006
     19 C         140.2811  140.0738  169.7399 C.ar    1  UNL1        0.0080
     20 C         140.2217  140.9002  168.4895 C.ar    1  UNL1        0.0482
     21 S         139.9041  140.5464  167.0668 S.2     1  UNL1       -0.0685
     22 O         139.0811  138.4220  157.0142 O.2     1  UNL1       -0.2733
     23 C         140.4385  137.8149  156.8170 C.2     1  UNL1        0.2426
     24 N         141.4790  137.9398  157.8901 N.am    1  UNL1       -0.3018
     25 H         142.3699  137.5414  157.7607 H       1  UNL1        0.1495
     26 C         140.7553  137.0830  155.5466 C.3     1  UNL1        0.1759
     27 N         140.8708  135.5874  155.5516 N.am    1  UNL1       -0.2931
     28 C         142.1239  134.9336  156.0538 C.2     1  UNL1        0.2462
     29 O         143.2615  135.7754  156.5509 O.2     1  UNL1       -0.2701
     30 H         140.1241  135.0350  155.2252 H       1  UNL1        0.1502
     31 C         142.2394  133.4381  156.0587 C.ar    1  UNL1        0.0533
     32 C         141.3422  132.6137  155.1840 C.ar    1  UNL1        0.0045
     33 C         141.4576  131.1181  155.1890 C.ar    1  UNL1        0.0001
     34 C         142.4704  130.4470  156.0688 C.ar    1  UNL1        0.0039
     35 C         143.3676  131.2714  156.9435 C.ar    1  UNL1        0.0716
     36 C         143.2521  132.7670  156.9385 C.ar    1  UNL1        0.0084
     37 C         144.3803  130.6003  157.8233 C.3     1  UNL1        0.4186
     38 F         145.3930  129.9293  158.7030 F       1  UNL1       -0.1659
     39 F         143.3455  129.6036  158.2542 F       1  UNL1       -0.1659
     40 F         145.4152  131.5971  157.3924 F       1  UNL1       -0.1659
@<TRIPOS>BOND
     1    22    23    2
     2    23    26    1
     3    26    27    1
     4    27    28   am
     5    28    29    2
     6    28    31    1
     7    31    32   ar
     8    32    33   ar
     9    33    34   ar
    10    34    35   ar
    11    35    37    1
    12    37    38    1
    13    37    39    1
    14    37    40    1
    15    35    36   ar
    16    23    24   am
    17    24     1    1
    18     1     2    1
    19     2     3    1
    20     5     3    1
    21     5     6    1
    22     6     7    1
    23     7     8    1
    24     8     9    1
    25     8    13    1
    26    13    14   ar
    27    14    15   ar
    28    15    16   ar
    29    16    17   ar
    30    17    18   ar
    31    18    19   ar
    32    19    20   ar
    33    20    21   ar
    34     8    10    1
    35    10    11    1
    36     3     4    1
    37    36    31   ar
    38     4     1    1
    39    11     5    1
    40    21    13   ar
    41    20    15   ar
    42    27    30    1
    43    24    25    1
    44     9    12    1
@<TRIPOS>MOLECULE
*****
 40 44 0 0 0
SMALL
GASTEIGER

@<TRIPOS>ATOM
      1 C         142.8605  138.0987  159.1723 C.3     1  UNL1        0.1035
      2 C         143.2989  137.7386  160.5609 C.3     1  UNL1        0.0933
      3 N         142.9693  139.1265  161.0248 N.3     1  UNL1       -0.2711
      4 C         142.5310  139.4865  159.6362 C.3     1  UNL1        0.0933
      5 C         143.0462  139.8534  162.3346 C.3     1  UNL1        0.0578
      6 C         144.1476  140.8417  162.5802 C.3     1  UNL1        0.0188
      7 C         144.2245  141.5687  163.8901 C.3     1  UNL1        0.0346
      8 C         143.2003  141.3073  164.9542 C.3     1  UNL1        0.1288
      9 O         144.0481  142.3279  165.6539 O.3     1  UNL1       -0.3807
     10 C         142.0989  140.3190  164.7086 C.3     1  UNL1        0.0346
     11 C         142.0220  139.5920  163.3987 C.3     1  UNL1        0.0188
     12 H         144.7738  142.6001  165.0707 H       1  UNL1        0.2108
     13 C         142.4704  141.4004  166.2614 C.ar    1  UNL1        0.1123
     14 N         141.7965  142.6231  166.8098 N.ar    1  UNL1       -0.2404
     15 C         141.1958  142.2655  168.1370 C.ar    1  UNL1        0.0876
     16 C         140.4124  143.0680  169.1330 C.ar    1  UNL1        0.0196
     17 C         139.9317  142.4268  170.4009 C.ar    1  UNL1        0.0016
     18 C         140.2344  140.9830  170.6728 C.ar    1  UNL1        0.0006
     19 C         141.0178  140.1805  169.6767 C.ar    1  UNL1        0.0080
     20 C         141.4985  140.8218  168.4088 C.ar    1  UNL1        0.0482
     21 S         142.2862  140.2871  167.2496 S.2     1  UNL1       -0.0685
     22 O         140.2546  137.9426  157.6942 O.2     1  UNL1       -0.2733
     23 C         141.4806  137.2938  157.1234 C.2     1  UNL1        0.2426
     24 N         142.7835  137.3718  157.8624 N.am    1  UNL1       -0.3018
     25 H         143.5882  136.9459  157.4877 H       1  UNL1        0.1495
     26 C         141.4036  136.5670  155.8135 C.3     1  UNL1        0.1759
     27 N         141.3500  135.0681  155.7895 N.am    1  UNL1       -0.2931
     28 C         142.5861  134.2688  156.0782 C.2     1  UNL1        0.2462
     29 O         143.8756  134.9683  156.3908 O.2     1  UNL1       -0.2701
     30 H         140.5037  134.6090  155.5843 H       1  UNL1        0.1502
     31 C         142.5325  132.7699  156.0542 C.ar    1  UNL1        0.0533
     32 C         141.7030  132.0655  155.0219 C.ar    1  UNL1        0.0045
     33 C         141.6494  130.5667  154.9980 C.ar    1  UNL1        0.0001
     34 C         142.4255  129.7722  156.0063 C.ar    1  UNL1        0.0039
     35 C         143.2550  130.4766  157.0385 C.ar    1  UNL1        0.0716
     36 C         143.3086  131.9755  157.0625 C.ar    1  UNL1        0.0084
     37 C         144.0311  129.6822  158.0468 C.3     1  UNL1        0.4186
     38 F         144.8071  128.8879  159.0551 F       1  UNL1       -0.1659
     39 F         143.0625  128.5467  157.8976 F       1  UNL1       -0.1659
     40 F         144.9997  130.8178  158.1960 F       1  UNL1       -0.1659
@<TRIPOS>BOND
     1    22    23    2
     2    23    26    1
     3    26    27    1
     4    27    28   am
     5    28    29    2
     6    28    31    1
     7    31    32   ar
     8    32    33   ar
     9    33    34   ar
    10    34    35   ar
    11    35    37    1
    12    37    38    1
    13    37    39    1
    14    37    40    1
    15    35    36   ar
    16    23    24   am
    17    24     1    1
    18     1     2    1
    19     2     3    1
    20     5     3    1
    21     5     6    1
    22     6     7    1
    23     7     8    1
    24     8     9    1
    25     8    13    1
    26    13    14   ar
    27    14    15   ar
    28    15    16   ar
    29    16    17   ar
    30    17    18   ar
    31    18    19   ar
    32    19    20   ar
    33    20    21   ar
    34     8    10    1
    35    10    11    1
    36     3     4    1
    37    36    31   ar
    38     4     1    1
    39    11     5    1
    40    21    13   ar
    41    20    15   ar
    42    27    30    1
    43    24    25    1
    44     9    12    1
@<TRIPOS>MOLECULE
*****
 40 44 0 0 0
SMALL
GASTEIGER

@<TRIPOS>ATOM
      1 C         142.0355  142.0350  161.2760 C.3     1  UNL1        0.1035
      2 C         142.4009  142.2857  159.8430 C.3     1  UNL1        0.0933
      3 N         141.1863  143.1516  159.6847 N.3     1  UNL1       -0.2711
      4 C         140.8208  142.9008  161.1177 C.3     1  UNL1        0.0933
      5 C         140.5858  143.9411  158.5595 C.3     1  UNL1        0.0578
      6 C         139.7575  143.2503  157.5171 C.3     1  UNL1        0.0188
      7 C         139.1570  144.0398  156.3919 C.3     1  UNL1        0.0346
      8 C         139.3847  145.5201  156.3091 C.3     1  UNL1        0.1288
      9 O         138.5328  145.3192  155.0910 O.3     1  UNL1       -0.3807
     10 C         140.2130  146.2109  157.3516 C.3     1  UNL1        0.0346
     11 C         140.8136  145.4214  158.4768 C.3     1  UNL1        0.0188
     12 H         138.2997  144.3810  155.0106 H       1  UNL1        0.2108
     13 C         139.3166  146.9306  155.8034 C.ar    1  UNL1        0.1123
     14 N         138.6964  148.0945  156.5179 N.ar    1  UNL1       -0.2404
     15 C         138.8532  149.3081  155.6504 C.ar    1  UNL1        0.0876
     16 C         138.4356  150.7365  155.8378 C.ar    1  UNL1        0.0196
     17 C         138.7352  151.7511  154.7744 C.ar    1  UNL1        0.0016
     18 C         139.4523  151.3373  153.5236 C.ar    1  UNL1        0.0006
     19 C         139.8699  149.9088  153.3363 C.ar    1  UNL1        0.0080
     20 C         139.5703  148.8942  154.3996 C.ar    1  UNL1        0.0482
     21 S         139.8567  147.4249  154.4942 S.2     1  UNL1       -0.0685
     22 O         144.8250  142.6308  162.2051 O.2     1  UNL1       -0.2733
     23 C         144.0307  141.5434  162.8657 C.2     1  UNL1        0.2426
     24 N         142.6359  141.2454  162.4012 N.am    1  UNL1       -0.3018
     25 H         142.1146  140.5317  162.8348 H       1  UNL1        0.1495
     26 C         144.6312  140.7538  163.9910 C.3     1  UNL1        0.1759
     27 N         143.8133  140.4436  165.2095 N.am    1  UNL1       -0.2931
     28 C         143.3947  141.5490  166.1332 C.2     1  UNL1        0.2462
     29 O         143.7940  142.9644  165.8382 O.2     1  UNL1       -0.2701
     30 H         143.5513  139.5146  165.4031 H       1  UNL1        0.1502
     31 C         142.5769  141.2388  167.3517 C.ar    1  UNL1        0.0533
     32 C         142.4890  139.8293  167.8572 C.ar    1  UNL1        0.0045
     33 C         141.6712  139.5191  169.0757 C.ar    1  UNL1        0.0001
     34 C         140.9411  140.6185  169.7888 C.ar    1  UNL1        0.0039
     35 C         141.0290  142.0280  169.2834 C.ar    1  UNL1        0.0716
     36 C         141.8468  142.3382  168.0648 C.ar    1  UNL1        0.0084
     37 C         140.2989  143.1274  169.9964 C.3     1  UNL1        0.4186
     38 F         139.5689  144.2266  170.7094 F       1  UNL1       -0.1659
     39 F         140.5162  142.4239  171.3033 F       1  UNL1       -0.1659
     40 F         140.0817  143.8308  168.6895 F       1  UNL1       -0.1659
@<TRIPOS>BOND
     1    22    23    2
     2    23    26    1
     3    26    27    1
     4    27    28   am
     5    28    29    2
     6    28    31    1
     7    31    32   ar
     8    32    33   ar
     9    33    34   ar
    10    34    35   ar
    11    35    37    1
    12    37    38    1
    13    37    39    1
    14    37    40    1
    15    35    36   ar
    16    23    24   am
    17    24     1    1
    18     1     2    1
    19     2     3    1
    20     5     3    1
    21     5     6    1
    22     6     7    1
    23     7     8    1
    24     8     9    1
    25     8    13    1
    26    13    14   ar
    27    14    15   ar
    28    15    16   ar
    29    16    17   ar
    30    17    18   ar
    31    18    19   ar
    32    19    20   ar
    33    20    21   ar
    34     8    10    1
    35    10    11    1
    36     3     4    1
    37    36    31   ar
    38     4     1    1
    39    11     5    1
    40    21    13   ar
    41    20    15   ar
    42    27    30    1
    43    24    25    1
    44     9    12    1
@<TRIPOS>MOLECULE
*****
 40 44 0 0 0
SMALL
GASTEIGER

@<TRIPOS>ATOM
      1 C         140.7994  142.1402  161.2302 C.3     1  UNL1        0.1035
      2 C         139.5554  142.6750  160.5849 C.3     1  UNL1        0.0933
      3 N         140.3867  143.3160  159.5135 N.3     1  UNL1       -0.2711
      4 C         141.6308  142.7812  160.1587 C.3     1  UNL1        0.0933
      5 C         140.0950  144.1475  158.2996 C.3     1  UNL1        0.0578
      6 C         139.7580  143.4821  156.9982 C.3     1  UNL1        0.0188
      7 C         139.4663  144.3135  155.7842 C.3     1  UNL1        0.0346
      8 C         139.5116  145.8102  155.8716 C.3     1  UNL1        0.1288
      9 O         139.1463  145.6447  154.4262 O.3     1  UNL1       -0.3807
     10 C         139.8487  146.4756  157.1730 C.3     1  UNL1        0.0346
     11 C         140.1404  145.6442  158.3870 C.3     1  UNL1        0.0188
     12 H         139.0787  144.7002  154.2159 H       1  UNL1        0.2108
     13 C         139.4301  147.2495  155.4571 C.ar    1  UNL1        0.1123
     14 N         138.7036  148.3382  156.1898 N.ar    1  UNL1       -0.2404
     15 C         138.8852  149.6144  155.4226 C.ar    1  UNL1        0.0876
     16 C         138.3953  151.0108  155.6671 C.ar    1  UNL1        0.0196
     17 C         138.7440  152.1072  154.7047 C.ar    1  UNL1        0.0016
     18 C         139.5827  151.8071  153.4978 C.ar    1  UNL1        0.0006
     19 C         140.0727  150.4107  153.2533 C.ar    1  UNL1        0.0080
     20 C         139.7239  149.3143  154.2158 C.ar    1  UNL1        0.0482
     21 S         140.0607  147.8527  154.2371 S.2     1  UNL1       -0.0685
     22 O         140.2011  139.2005  161.2141 O.2     1  UNL1       -0.2733
     23 C         140.7920  139.8389  162.4360 C.2     1  UNL1        0.2426
     24 N         141.0912  141.3087  162.4441 N.am    1  UNL1       -0.3018
     25 H         141.4791  141.7277  163.2461 H       1  UNL1        0.1495
     26 C         141.0838  139.0074  163.6499 C.3     1  UNL1        0.1759
     27 N         141.1519  139.6528  165.0023 N.am    1  UNL1       -0.2931
     28 C         140.1262  139.3195  166.0449 C.2     1  UNL1        0.2462
     29 O         139.0324  138.3409  165.7350 O.2     1  UNL1       -0.2701
     30 H         141.8698  140.2950  165.2056 H       1  UNL1        0.1502
     31 C         140.1944  139.9648  167.3972 C.ar    1  UNL1        0.0533
     32 C         139.0350  139.8506  168.3421 C.ar    1  UNL1        0.0045
     33 C         139.1032  140.4959  169.6944 C.ar    1  UNL1        0.0001
     34 C         140.3308  141.2556  170.1019 C.ar    1  UNL1        0.0039
     35 C         141.4901  141.3698  169.1571 C.ar    1  UNL1        0.0716
     36 C         141.4220  140.7245  167.8047 C.ar    1  UNL1        0.0084
     37 C         142.7177  142.1295  169.5646 C.3     1  UNL1        0.4186
     38 F         143.9452  142.8890  169.9720 F       1  UNL1       -0.1659
     39 F         141.9219  143.4006  169.5924 F       1  UNL1       -0.1659
     40 F         143.5136  140.8583  169.5368 F       1  UNL1       -0.1659
@<TRIPOS>BOND
     1    22    23    2
     2    23    26    1
     3    26    27    1
     4    27    28   am
     5    28    29    2
     6    28    31    1
     7    31    32   ar
     8    32    33   ar
     9    33    34   ar
    10    34    35   ar
    11    35    37    1
    12    37    38    1
    13    37    39    1
    14    37    40    1
    15    35    36   ar
    16    23    24   am
    17    24     1    1
    18     1     2    1
    19     2     3    1
    20     5     3    1
    21     5     6    1
    22     6     7    1
    23     7     8    1
    24     8     9    1
    25     8    13    1
    26    13    14   ar
    27    14    15   ar
    28    15    16   ar
    29    16    17   ar
    30    17    18   ar
    31    18    19   ar
    32    19    20   ar
    33    20    21   ar
    34     8    10    1
    35    10    11    1
    36     3     4    1
    37    36    31   ar
    38     4     1    1
    39    11     5    1
    40    21    13   ar
    41    20    15   ar
    42    27    30    1
    43    24    25    1
    44     9    12    1
@<TRIPOS>MOLECULE
*****
 40 44 0 0 0
SMALL
GASTEIGER

@<TRIPOS>ATOM
      1 C         142.1983  137.8961  158.6701 C.3     1  UNL1        0.1035
      2 C         141.0635  138.7657  159.1241 C.3     1  UNL1        0.0933
      3 N         141.8535  139.1644  160.3353 N.3     1  UNL1       -0.2711
      4 C         142.9884  138.2949  159.8813 C.3     1  UNL1        0.0933
      5 C         141.6099  140.0612  161.5127 C.3     1  UNL1        0.0578
      6 C         141.7134  141.5494  161.3560 C.3     1  UNL1        0.0188
      7 C         141.4697  142.4463  162.5334 C.3     1  UNL1        0.0346
      8 C         141.1225  141.8549  163.8675 C.3     1  UNL1        0.1288
      9 O         141.1031  143.3137  164.2162 O.3     1  UNL1       -0.3807
     10 C         141.0189  140.3667  164.0242 C.3     1  UNL1        0.0346
     11 C         141.2626  139.4699  162.8467 C.3     1  UNL1        0.0188
     12 H         141.3160  143.8374  163.4280 H       1  UNL1        0.2108
     13 C         140.7686  141.7702  165.3226 C.ar    1  UNL1        0.1123
     14 N         140.1617  140.5860  166.0149 N.ar    1  UNL1       -0.2404
     15 C         139.9774  140.9387  167.4612 C.ar    1  UNL1        0.0876
     16 C         139.4244  140.1642  168.6206 C.ar    1  UNL1        0.0196
     17 C         139.3643  140.7920  169.9816 C.ar    1  UNL1        0.0016
     18 C         139.8572  142.1942  170.1831 C.ar    1  UNL1        0.0006
     19 C         140.4102  142.9688  169.0237 C.ar    1  UNL1        0.0080
     20 C         140.4703  142.3410  167.6627 C.ar    1  UNL1        0.0482
     21 S         140.9593  142.8549  166.3410 S.2     1  UNL1       -0.0685
     22 O         144.1097  138.7355  156.5156 O.2     1  UNL1       -0.2733
     23 C         143.3978  137.4190  156.4154 C.2     1  UNL1        0.2426
     24 N         142.4421  136.9993  157.4927 N.am    1  UNL1       -0.3018
     25 H         141.9748  136.1353  157.4269 H       1  UNL1        0.1495
     26 C         143.6416  136.5222  155.2380 C.3     1  UNL1        0.1759
     27 N         143.6396  135.0329  155.4165 N.am    1  UNL1       -0.2931
     28 C         142.3400  134.2861  155.4738 C.2     1  UNL1        0.2462
     29 O         141.0424  135.0287  155.3526 O.2     1  UNL1       -0.2701
     30 H         144.4913  134.5455  155.4961 H       1  UNL1        0.1502
     31 C         142.3380  132.7968  155.6524 C.ar    1  UNL1        0.0533
     32 C         141.4615  131.9390  154.7888 C.ar    1  UNL1        0.0045
     33 C         141.4595  130.4497  154.9673 C.ar    1  UNL1        0.0001
     34 C         142.3342  129.8181  156.0095 C.ar    1  UNL1        0.0039
     35 C         143.2108  130.6759  156.8731 C.ar    1  UNL1        0.0716
     36 C         143.2127  132.1652  156.6945 C.ar    1  UNL1        0.0084
     37 C         144.0855  130.0443  157.9153 C.3     1  UNL1        0.4186
     38 F         144.9601  129.4128  158.9573 F       1  UNL1       -0.1659
     39 F         144.8544  131.3255  158.0463 F       1  UNL1       -0.1659
     40 F         143.3165  128.7630  157.7842 F       1  UNL1       -0.1659
@<TRIPOS>BOND
     1    22    23    2
     2    23    26    1
     3    26    27    1
     4    27    28   am
     5    28    29    2
     6    28    31    1
     7    31    32   ar
     8    32    33   ar
     9    33    34   ar
    10    34    35   ar
    11    35    37    1
    12    37    38    1
    13    37    39    1
    14    37    40    1
    15    35    36   ar
    16    23    24   am
    17    24     1    1
    18     1     2    1
    19     2     3    1
    20     5     3    1
    21     5     6    1
    22     6     7    1
    23     7     8    1
    24     8     9    1
    25     8    13    1
    26    13    14   ar
    27    14    15   ar
    28    15    16   ar
    29    16    17   ar
    30    17    18   ar
    31    18    19   ar
    32    19    20   ar
    33    20    21   ar
    34     8    10    1
    35    10    11    1
    36     3     4    1
    37    36    31   ar
    38     4     1    1
    39    11     5    1
    40    21    13   ar
    41    20    15   ar
    42    27    30    1
    43    24    25    1
    44     9    12    1
@<TRIPOS>MOLECULE
*****
 40 44 0 0 0
SMALL
GASTEIGER

@<TRIPOS>ATOM
      1 C         141.7556  141.2943  160.8284 C.3     1  UNL1        0.1035
      2 C         142.8911  140.3549  160.5487 C.3     1  UNL1        0.0933
      3 N         142.2734  140.0012  159.2284 N.3     1  UNL1       -0.2711
      4 C         141.1378  140.9406  159.5080 C.3     1  UNL1        0.0933
      5 C         142.6394  139.0869  158.0970 C.3     1  UNL1        0.0578
      6 C         143.3970  139.6199  156.9172 C.3     1  UNL1        0.0188
      7 C         143.7631  138.7057  155.7857 C.3     1  UNL1        0.0346
      8 C         143.3715  137.2585  155.8340 C.3     1  UNL1        0.1288
      9 O         144.0784  137.2930  154.5115 O.3     1  UNL1       -0.3807
     10 C         142.6139  136.7255  157.0138 C.3     1  UNL1        0.0346
     11 C         142.2478  137.6398  158.1453 C.3     1  UNL1        0.0188
     12 H         144.3972  138.1927  154.3387 H       1  UNL1        0.2108
     13 C         143.2254  135.8233  155.4231 C.ar    1  UNL1        0.1123
     14 N         142.5610  135.3274  154.1730 N.ar    1  UNL1       -0.2404
     15 C         142.6431  133.8296  154.1674 C.ar    1  UNL1        0.0876
     16 C         142.1590  132.8016  153.1882 C.ar    1  UNL1        0.0196
     17 C         142.3901  131.3439  153.4556 C.ar    1  UNL1        0.0016
     18 C         143.1052  130.9142  154.7022 C.ar    1  UNL1        0.0006
     19 C         143.5892  131.9422  155.6814 C.ar    1  UNL1        0.0080
     20 C         143.3582  133.3999  155.4140 C.ar    1  UNL1        0.0482
     21 S         143.7181  134.6321  156.1900 S.2     1  UNL1       -0.0685
     22 O         142.5422  144.1877  160.7333 O.2     1  UNL1       -0.2733
     23 C         141.7828  143.6553  161.9122 C.2     1  UNL1        0.2426
     24 N         141.3895  142.2086  161.9598 N.am    1  UNL1       -0.3018
     25 H         140.8911  141.8592  162.7335 H       1  UNL1        0.1495
     26 C         141.4168  144.5696  163.0436 C.3     1  UNL1        0.1759
     27 N         141.7886  144.2075  164.4510 N.am    1  UNL1       -0.2931
     28 C         140.9966  143.1722  165.1932 C.2     1  UNL1        0.2462
     29 O         139.8327  142.4991  164.5280 O.2     1  UNL1       -0.2701
     30 H         142.5525  144.6493  164.8875 H       1  UNL1        0.1502
     31 C         141.3684  142.8100  166.6005 C.ar    1  UNL1        0.0533
     32 C         142.6703  142.1187  166.8780 C.ar    1  UNL1        0.0045
     33 C         143.0422  141.7565  168.2853 C.ar    1  UNL1        0.0001
     34 C         142.1121  142.0857  169.4152 C.ar    1  UNL1        0.0039
     35 C         140.8102  142.7771  169.1377 C.ar    1  UNL1        0.0716
     36 C         140.4383  143.1392  167.7304 C.ar    1  UNL1        0.0084
     37 C         139.8801  143.1063  170.2676 C.3     1  UNL1        0.4186
     38 F         138.9500  143.4355  171.3973 F       1  UNL1       -0.1659
     39 F         140.3240  144.5381  170.2158 F       1  UNL1       -0.1659
     40 F         139.4361  141.6744  170.3193 F       1  UNL1       -0.1659
@<TRIPOS>BOND
     1    22    23    2
     2    23    26    1
     3    26    27    1
     4    27    28   am
     5    28    29    2
     6    28    31    1
     7    31    32   ar
     8    32    33   ar
     9    33    34   ar
    10    34    35   ar
    11    35    37    1
    12    37    38    1
    13    37    39    1
    14    37    40    1
    15    35    36   ar
    16    23    24   am
    17    24     1    1
    18     1     2    1
    19     2     3    1
    20     5     3    1
    21     5     6    1
    22     6     7    1
    23     7     8    1
    24     8     9    1
    25     8    13    1
    26    13    14   ar
    27    14    15   ar
    28    15    16   ar
    29    16    17   ar
    30    17    18   ar
    31    18    19   ar
    32    19    20   ar
    33    20    21   ar
    34     8    10    1
    35    10    11    1
    36     3     4    1
    37    36    31   ar
    38     4     1    1
    39    11     5    1
    40    21    13   ar
    41    20    15   ar
    42    27    30    1
    43    24    25    1
    44     9    12    1
@<TRIPOS>MOLECULE
*****
 40 44 0 0 0
SMALL
GASTEIGER

@<TRIPOS>ATOM
      1 C         137.9967  140.5823  158.9057 C.3     1  UNL1        0.1035
      2 C         138.6469  139.6213  159.8563 C.3     1  UNL1        0.0933
      3 N         139.1042  140.7704  160.7052 N.3     1  UNL1       -0.2711
      4 C         138.4540  141.7314  159.7545 C.3     1  UNL1        0.0933
      5 C         139.8872  140.9035  161.9776 C.3     1  UNL1        0.0578
      6 C         141.3860  140.9462  161.9348 C.3     1  UNL1        0.0188
      7 C         142.1691  141.0794  163.2072 C.3     1  UNL1        0.0346
      8 C         141.4535  141.1697  164.5224 C.3     1  UNL1        0.1288
      9 O         142.8752  141.2540  164.9932 O.3     1  UNL1       -0.3807
     10 C         139.9547  141.1270  164.5652 C.3     1  UNL1        0.0346
     11 C         139.1716  140.9938  163.2928 C.3     1  UNL1        0.0188
     12 H         143.4719  141.2072  164.2298 H       1  UNL1        0.2108
     13 C         141.2316  141.2893  166.0010 C.ar    1  UNL1        0.1123
     14 N         140.8621  142.5421  166.7387 N.ar    1  UNL1       -0.2404
     15 C         140.7424  142.2042  168.1952 C.ar    1  UNL1        0.0876
     16 C         140.4025  143.0386  169.3944 C.ar    1  UNL1        0.0196
     17 C         140.3581  142.4114  170.7563 C.ar    1  UNL1        0.0016
     18 C         140.6536  140.9498  170.9189 C.ar    1  UNL1        0.0006
     19 C         140.9935  140.1154  169.7196 C.ar    1  UNL1        0.0080
     20 C         141.0379  140.7426  168.3578 C.ar    1  UNL1        0.0482
     21 S         141.3402  140.1772  167.0017 S.2     1  UNL1       -0.0685
     22 O         137.5635  142.9786  157.1535 O.2     1  UNL1       -0.2733
     23 C         136.9971  141.6474  156.7571 C.2     1  UNL1        0.2426
     24 N         137.2137  140.4493  157.6332 N.am    1  UNL1       -0.3018
     25 H         136.8419  139.5756  157.3731 H       1  UNL1        0.1495
     26 C         136.2140  141.5144  155.4847 C.3     1  UNL1        0.1759
     27 N         134.7204  141.6517  155.5054 N.am    1  UNL1       -0.2931
     28 C         133.8693  140.5138  155.9859 C.2     1  UNL1        0.2462
     29 O         134.5118  139.2387  156.4457 O.2     1  UNL1       -0.2701
     30 H         134.2988  142.4885  155.2036 H       1  UNL1        0.1502
     31 C         132.3757  140.6510  156.0066 C.ar    1  UNL1        0.0533
     32 C         131.5460  139.6965  156.8130 C.ar    1  UNL1        0.0045
     33 C         130.0524  139.8338  156.8337 C.ar    1  UNL1        0.0001
     34 C         129.3886  140.9257  156.0479 C.ar    1  UNL1        0.0039
     35 C         130.2184  141.8802  155.2416 C.ar    1  UNL1        0.0716
     36 C         131.7120  141.7429  155.2209 C.ar    1  UNL1        0.0084
     37 C         129.5547  142.9720  154.4559 C.3     1  UNL1        0.4186
     38 F         128.8910  144.0638  153.6702 F       1  UNL1       -0.1659
     39 F         129.8379  143.9419  155.5645 F       1  UNL1       -0.1659
     40 F         129.2714  142.0021  153.3472 F       1  UNL1       -0.1659
@<TRIPOS>BOND
     1    22    23    2
     2    23    26    1
     3    26    27    1
     4    27    28   am
     5    28    29    2
     6    28    31    1
     7    31    32   ar
     8    32    33   ar
     9    33    34   ar
    10    34    35   ar
    11    35    37    1
    12    37    38    1
    13    37    39    1
    14    37    40    1
    15    35    36   ar
    16    23    24   am
    17    24     1    1
    18     1     2    1
    19     2     3    1
    20     5     3    1
    21     5     6    1
    22     6     7    1
    23     7     8    1
    24     8     9    1
    25     8    13    1
    26    13    14   ar
    27    14    15   ar
    28    15    16   ar
    29    16    17   ar
    30    17    18   ar
    31    18    19   ar
    32    19    20   ar
    33    20    21   ar
    34     8    10    1
    35    10    11    1
    36     3     4    1
    37    36    31   ar
    38     4     1    1
    39    11     5    1
    40    21    13   ar
    41    20    15   ar
    42    27    30    1
    43    24    25    1
    44     9    12    1
