@<TRIPOS>MOLECULE
*****
 33 37 0 0 0
SMALL
GASTEIGER

@<TRIPOS>ATOM
      1 C         142.5485  139.5026  163.0238 C.2     1  UNL1        0.4243
      2 N         143.3879  138.6941  163.9681 N.2     1  UNL1        0.0275
      3 C         143.1978  138.8351  165.4493 C.2     1  UNL1        0.3991
      4 N         143.8724  138.1751  166.6151 N.2     1  UNL1        0.0826
      5 N         143.2598  138.7168  167.8726 N.2     1  UNL1       -0.0375
      6 C         142.2066  139.7116  167.4839 C.2     1  UNL1        0.1282
      7 C         142.1683  139.7847  165.9862 C.3     1  UNL1        0.2504
      8 C         141.3289  140.5933  165.0419 C.2     1  UNL1        0.3055
      9 O         140.2993  141.5430  165.5788 O.2     1  UNL1       -0.2554
     10 N         141.5190  140.4523  163.5607 N.am    1  UNL1       -0.1358
     11 C         140.6796  141.2609  162.6164 C.3     1  UNL1        0.2167
     12 C         144.4066  140.1461  155.0774 C.3     1  UNL1        0.0335
     13 C         143.7982  139.5050  156.2893 C.3     1  UNL1        0.1294
     14 O         143.0247  138.2199  156.3123 O.3     1  UNL1       -0.3548
     15 C         142.6049  137.9570  157.7283 C.3     1  UNL1        0.1435
     16 C         143.1189  139.0795  158.5802 C.3     1  UNL1        0.0490
     17 C         142.3540  138.0372  159.3408 C.3     1  UNL1        0.0444
     18 C         142.1639  138.1782  160.8220 C.3     1  UNL1        0.1682
     19 N         142.7387  139.3616  161.5426 N.pl3   1  UNL1       -0.1900
     20 C         143.5035  140.4039  160.7820 C.3     1  UNL1        0.1682
     21 C         143.6936  140.2629  159.3008 C.3     1  UNL1        0.0444
     22 C         143.8564  140.0362  157.6908 C.3     1  UNL1        0.0808
     23 N         144.5332  141.3019  158.1266 N.3     1  UNL1       -0.3202
     24 H         144.4174  141.4201  159.1331 H       1  UNL1        0.1189
     25 H         144.1154  142.0955  157.6408 H       1  UNL1        0.1189
     26 C         141.3433  140.4957  168.4273 C.ar    1  UNL1        0.0298
     27 C         140.0548  139.9117  168.9259 C.ar    1  UNL1        0.0022
     28 C         139.1914  140.6957  169.8694 C.ar    1  UNL1        0.0010
     29 C         139.6166  142.0636  170.3142 C.ar    1  UNL1        0.0122
     30 C         140.9052  142.6476  169.8156 C.ar    1  UNL1        0.0682
     31 CL        141.3305  144.0155  170.2604 Cl      1  UNL1       -0.0814
     32 C         141.7685  141.8636  168.8722 C.ar    1  UNL1        0.0695
     33 CL        143.0571  142.4476  168.3736 Cl      1  UNL1       -0.0813
@<TRIPOS>BOND
     1    13    12    1
     2    13    14    1
     3    14    15    1
     4    15    16    1
     5    16    17    1
     6    17    18    1
     7    18    19    1
     8    19     1    1
     9     1     2    2
    10     2     3    1
    11     3     4    2
    12     4     5    1
    13     5     6    2
    14     6    26    1
    15    26    27   ar
    16    27    28   ar
    17    28    29   ar
    18    29    30   ar
    19    30    31    1
    20    30    32   ar
    21    32    33    1
    22     6     7    1
    23     7     8    1
    24     8     9    2
    25     8    10   am
    26    10    11    1
    27    19    20    1
    28    20    21    1
    29    16    22    1
    30    22    23    1
    31    22    13    1
    32    21    16    1
    33    10     1    1
    34     7     3    1
    35    32    26   ar
    36    23    24    1
    37    23    25    1
@<TRIPOS>MOLECULE
*****
 33 37 0 0 0
SMALL
GASTEIGER

@<TRIPOS>ATOM
      1 C         140.9010  142.8882  162.2374 C.2     1  UNL1        0.4243
      2 N         141.9232  141.8222  162.4996 N.2     1  UNL1        0.0275
      3 C         142.1668  141.3449  163.9007 C.2     1  UNL1        0.3991
      4 N         143.1023  140.3157  164.4620 N.2     1  UNL1        0.0826
      5 N         142.9019  140.2683  165.9478 N.2     1  UNL1       -0.0375
      6 C         141.8424  141.2684  166.3047 C.2     1  UNL1        0.1282
      7 C         141.3881  141.9337  165.0396 C.3     1  UNL1        0.2504
      8 C         140.3659  142.9998  164.7773 C.2     1  UNL1        0.3055
      9 O         139.5872  143.5886  165.9162 O.2     1  UNL1       -0.2554
     10 N         140.1224  143.4770  163.3763 N.am    1  UNL1       -0.1358
     11 C         139.1002  144.5430  163.1140 C.3     1  UNL1        0.2167
     12 C         140.8162  146.5152  154.8993 C.3     1  UNL1        0.0335
     13 C         140.3553  145.5483  155.9492 C.3     1  UNL1        0.1294
     14 O         139.2358  144.5600  155.8072 O.3     1  UNL1       -0.3548
     15 C         139.1215  143.8008  157.0959 C.3     1  UNL1        0.1435
     16 C         140.1703  144.3198  158.0343 C.3     1  UNL1        0.0490
     17 C         139.3226  143.2254  158.6118 C.3     1  UNL1        0.0444
     18 C         139.5662  142.7482  160.0128 C.3     1  UNL1        0.1682
     19 N         140.6575  143.3654  160.8363 N.pl3   1  UNL1       -0.1900
     20 C         141.5052  144.4599  160.2588 C.3     1  UNL1        0.1682
     21 C         141.2616  144.9370  158.8578 C.3     1  UNL1        0.0444
     22 C         140.9328  145.3998  157.3256 C.3     1  UNL1        0.0808
     23 N         142.0727  146.1922  157.8936 N.3     1  UNL1       -0.3202
     24 H         142.2578  145.8850  158.8485 H       1  UNL1        0.1189
     25 H         141.8302  147.1830  157.8961 H       1  UNL1        0.1189
     26 C         141.3277  141.5530  167.6846 C.ar    1  UNL1        0.0298
     27 C         142.0083  142.5784  168.5422 C.ar    1  UNL1        0.0022
     28 C         141.4937  142.8631  169.9221 C.ar    1  UNL1        0.0010
     29 C         140.2985  142.1224  170.4444 C.ar    1  UNL1        0.0122
     30 C         139.6179  141.0970  169.5869 C.ar    1  UNL1        0.0682
     31 CL        138.4228  140.3562  170.1091 Cl      1  UNL1       -0.0814
     32 C         140.1326  140.8123  168.2070 C.ar    1  UNL1        0.0695
     33 CL        139.4520  139.7869  167.3494 Cl      1  UNL1       -0.0813
@<TRIPOS>BOND
     1    13    12    1
     2    13    14    1
     3    14    15    1
     4    15    16    1
     5    16    17    1
     6    17    18    1
     7    18    19    1
     8    19     1    1
     9     1     2    2
    10     2     3    1
    11     3     4    2
    12     4     5    1
    13     5     6    2
    14     6    26    1
    15    26    27   ar
    16    27    28   ar
    17    28    29   ar
    18    29    30   ar
    19    30    31    1
    20    30    32   ar
    21    32    33    1
    22     6     7    1
    23     7     8    1
    24     8     9    2
    25     8    10   am
    26    10    11    1
    27    19    20    1
    28    20    21    1
    29    16    22    1
    30    22    23    1
    31    22    13    1
    32    21    16    1
    33    10     1    1
    34     7     3    1
    35    32    26   ar
    36    23    24    1
    37    23    25    1
@<TRIPOS>MOLECULE
*****
 33 37 0 0 0
SMALL
GASTEIGER

@<TRIPOS>ATOM
      1 C         142.3335  141.2675  160.4297 C.2     1  UNL1        0.4243
      2 N         141.0524  142.0436  160.3507 N.2     1  UNL1        0.0275
      3 C         140.1165  142.0678  161.5228 C.2     1  UNL1        0.3991
      4 N         138.7926  142.7396  161.7363 N.2     1  UNL1        0.0826
      5 N         138.3196  142.4028  163.1194 N.2     1  UNL1       -0.0375
      6 C         139.3514  141.5228  163.7606 C.2     1  UNL1        0.1282
      7 C         140.4619  141.3158  162.7739 C.3     1  UNL1        0.2504
      8 C         141.7431  140.5396  162.8529 C.2     1  UNL1        0.3055
      9 O         142.0884  139.7876  164.1039 O.2     1  UNL1       -0.2554
     10 N         142.6788  140.5155  161.6808 N.am    1  UNL1       -0.1358
     11 C         143.9600  139.7393  161.7598 C.3     1  UNL1        0.2167
     12 C         148.1837  142.3730  154.8115 C.3     1  UNL1        0.0335
     13 C         146.9697  141.7253  155.4086 C.3     1  UNL1        0.1294
     14 O         146.1923  140.5900  154.8113 O.3     1  UNL1       -0.3548
     15 C         145.0620  140.2622  155.7415 C.3     1  UNL1        0.1435
     16 C         145.1409  141.1949  156.9136 C.3     1  UNL1        0.0490
     17 C         143.9997  140.2238  156.9823 C.3     1  UNL1        0.0444
     18 C         143.0640  140.2480  158.1544 C.3     1  UNL1        0.1682
     19 N         143.2693  141.2433  159.2577 N.pl3   1  UNL1       -0.1900
     20 C         144.4105  142.2144  159.1889 C.3     1  UNL1        0.1682
     21 C         145.3462  142.1902  158.0169 C.3     1  UNL1        0.0444
     22 C         146.3199  142.0992  156.7078 C.3     1  UNL1        0.0808
     23 N         146.7701  143.1863  157.6381 N.3     1  UNL1       -0.3202
     24 H         146.1475  143.2226  158.4452 H       1  UNL1        0.1189
     25 H         146.7472  144.0820  157.1506 H       1  UNL1        0.1189
     26 C         139.2842  140.9504  165.1455 C.ar    1  UNL1        0.0298
     27 C         138.4909  139.7040  165.4041 C.ar    1  UNL1        0.0022
     28 C         138.4237  139.1315  166.7889 C.ar    1  UNL1        0.0010
     29 C         139.1498  139.8055  167.9152 C.ar    1  UNL1        0.0122
     30 C         139.9432  141.0520  167.6565 C.ar    1  UNL1        0.0682
     31 CL        140.6693  141.7261  168.7827 Cl      1  UNL1       -0.0814
     32 C         140.0104  141.6245  166.2717 C.ar    1  UNL1        0.0695
     33 CL        140.8037  142.8709  166.0131 Cl      1  UNL1       -0.0813
@<TRIPOS>BOND
     1    13    12    1
     2    13    14    1
     3    14    15    1
     4    15    16    1
     5    16    17    1
     6    17    18    1
     7    18    19    1
     8    19     1    1
     9     1     2    2
    10     2     3    1
    11     3     4    2
    12     4     5    1
    13     5     6    2
    14     6    26    1
    15    26    27   ar
    16    27    28   ar
    17    28    29   ar
    18    29    30   ar
    19    30    31    1
    20    30    32   ar
    21    32    33    1
    22     6     7    1
    23     7     8    1
    24     8     9    2
    25     8    10   am
    26    10    11    1
    27    19    20    1
    28    20    21    1
    29    16    22    1
    30    22    23    1
    31    22    13    1
    32    21    16    1
    33    10     1    1
    34     7     3    1
    35    32    26   ar
    36    23    24    1
    37    23    25    1
@<TRIPOS>MOLECULE
*****
 33 37 0 0 0
SMALL
GASTEIGER

@<TRIPOS>ATOM
      1 C         140.0572  139.0876  162.2084 C.2     1  UNL1        0.4243
      2 N         139.0465  139.5526  161.2023 N.2     1  UNL1        0.0275
      3 C         139.2889  139.3317  159.7385 C.2     1  UNL1        0.3991
      4 N         138.4798  139.6777  158.5239 N.2     1  UNL1        0.0826
      5 N         139.2328  139.2057  157.3155 N.2     1  UNL1       -0.0375
      6 C         140.5072  138.5679  157.7834 C.2     1  UNL1        0.1282
      7 C         140.5419  138.6458  159.2809 C.3     1  UNL1        0.2504
      8 C         141.5526  138.1808  160.2871 C.2     1  UNL1        0.3055
      9 O         142.8057  137.4949  159.8294 O.2     1  UNL1       -0.2554
     10 N         141.3103  138.4017  161.7508 N.am    1  UNL1       -0.1358
     11 C         142.3210  137.9366  162.7569 C.3     1  UNL1        0.2167
     12 C         139.8982  141.4389  170.0478 C.3     1  UNL1        0.0335
     13 C         139.4799  140.6279  168.8574 C.3     1  UNL1        0.1294
     14 O         138.4347  139.5520  168.8467 O.3     1  UNL1       -0.3548
     15 C         138.3422  139.0095  167.4512 C.3     1  UNL1        0.1435
     16 C         139.3302  139.7501  166.5996 C.3     1  UNL1        0.0490
     17 C         138.5462  138.7080  165.8584 C.3     1  UNL1        0.0444
     18 C         138.7886  138.4872  164.3947 C.3     1  UNL1        0.1682
     19 N         139.8149  139.3084  163.6722 N.pl3   1  UNL1       -0.1900
     20 C         140.5989  140.3505  164.4133 C.3     1  UNL1        0.1682
     21 C         140.3566  140.5714  165.8770 C.3     1  UNL1        0.0444
     22 C         140.0334  140.7503  167.4687 C.3     1  UNL1        0.0808
     23 N         141.1023  141.7052  167.0265 N.3     1  UNL1       -0.3202
     24 H         141.2852  141.5738  166.0317 H       1  UNL1        0.1189
     25 H         141.9562  141.5283  167.5555 H       1  UNL1        0.1189
     26 C         141.5618  137.9592  156.9075 C.ar    1  UNL1        0.0298
     27 C         141.4279  136.5368  156.4505 C.ar    1  UNL1        0.0022
     28 C         142.4824  135.9279  155.5746 C.ar    1  UNL1        0.0010
     29 C         143.6709  136.7415  155.1556 C.ar    1  UNL1        0.0122
     30 C         143.8049  138.1639  155.6126 C.ar    1  UNL1        0.0682
     31 CL        144.9934  138.9775  155.1937 Cl      1  UNL1       -0.0814
     32 C         142.7504  138.7727  156.4885 C.ar    1  UNL1        0.0695
     33 CL        142.8843  140.1951  156.9455 Cl      1  UNL1       -0.0813
@<TRIPOS>BOND
     1    13    12    1
     2    13    14    1
     3    14    15    1
     4    15    16    1
     5    16    17    1
     6    17    18    1
     7    18    19    1
     8    19     1    1
     9     1     2    2
    10     2     3    1
    11     3     4    2
    12     4     5    1
    13     5     6    2
    14     6    26    1
    15    26    27   ar
    16    27    28   ar
    17    28    29   ar
    18    29    30   ar
    19    30    31    1
    20    30    32   ar
    21    32    33    1
    22     6     7    1
    23     7     8    1
    24     8     9    2
    25     8    10   am
    26    10    11    1
    27    19    20    1
    28    20    21    1
    29    16    22    1
    30    22    23    1
    31    22    13    1
    32    21    16    1
    33    10     1    1
    34     7     3    1
    35    32    26   ar
    36    23    24    1
    37    23    25    1
@<TRIPOS>MOLECULE
*****
 33 37 0 0 0
SMALL
GASTEIGER

@<TRIPOS>ATOM
      1 C         140.8188  142.3397  162.3235 C.2     1  UNL1        0.4243
      2 N         141.4339  140.9961  162.5808 N.2     1  UNL1        0.0275
      3 C         141.5892  140.4992  163.9877 C.2     1  UNL1        0.3991
      4 N         142.1543  139.2270  164.5462 N.2     1  UNL1        0.0826
      5 N         142.0437  139.2876  166.0409 N.2     1  UNL1       -0.0375
      6 C         141.4103  140.5973  166.4061 C.2     1  UNL1        0.1282
      7 C         141.1294  141.3461  165.1372 C.3     1  UNL1        0.2504
      8 C         140.5143  142.6898  164.8798 C.2     1  UNL1        0.3055
      9 O         140.0544  143.5367  166.0293 O.2     1  UNL1       -0.2554
     10 N         140.3590  143.1866  163.4730 N.am    1  UNL1       -0.1358
     11 C         139.7439  144.5303  163.2157 C.3     1  UNL1        0.2167
     12 C         141.4705  145.6745  154.8760 C.3     1  UNL1        0.0335
     13 C         140.7953  144.9062  155.9731 C.3     1  UNL1        0.1294
     14 O         139.4326  144.2829  155.9034 O.3     1  UNL1       -0.3548
     15 C         139.1593  143.6178  157.2199 C.3     1  UNL1        0.1435
     16 C         140.3529  143.8301  158.1032 C.3     1  UNL1        0.0490
     17 C         139.2506  143.0419  158.7462 C.3     1  UNL1        0.0444
     18 C         139.4059  142.5451  160.1529 C.3     1  UNL1        0.1682
     19 N         140.6636  142.8365  160.9167 N.pl3   1  UNL1       -0.1900
     20 C         141.7659  143.6247  160.2737 C.3     1  UNL1        0.1682
     21 C         141.6106  144.1215  158.8669 C.3     1  UNL1        0.0444
     22 C         141.3640  144.6264  157.3326 C.3     1  UNL1        0.0808
     23 N         142.7078  145.0657  157.8336 N.3     1  UNL1       -0.3202
     24 H         142.8372  144.7388  158.7912 H       1  UNL1        0.1189
     25 H         142.7627  146.0839  157.8116 H       1  UNL1        0.1189
     26 C         141.1104  141.0744  167.7963 C.ar    1  UNL1        0.0298
     27 C         139.8323  140.6693  168.4687 C.ar    1  UNL1        0.0022
     28 C         139.5323  141.1463  169.8589 C.ar    1  UNL1        0.0010
     29 C         140.5105  142.0283  170.5766 C.ar    1  UNL1        0.0122
     30 C         141.7887  142.4334  169.9041 C.ar    1  UNL1        0.0682
     31 CL        142.7669  143.3154  170.6217 Cl      1  UNL1       -0.0814
     32 C         142.0886  141.9564  168.5139 C.ar    1  UNL1        0.0695
     33 CL        143.3668  142.3614  167.8415 Cl      1  UNL1       -0.0813
@<TRIPOS>BOND
     1    13    12    1
     2    13    14    1
     3    14    15    1
     4    15    16    1
     5    16    17    1
     6    17    18    1
     7    18    19    1
     8    19     1    1
     9     1     2    2
    10     2     3    1
    11     3     4    2
    12     4     5    1
    13     5     6    2
    14     6    26    1
    15    26    27   ar
    16    27    28   ar
    17    28    29   ar
    18    29    30   ar
    19    30    31    1
    20    30    32   ar
    21    32    33    1
    22     6     7    1
    23     7     8    1
    24     8     9    2
    25     8    10   am
    26    10    11    1
    27    19    20    1
    28    20    21    1
    29    16    22    1
    30    22    23    1
    31    22    13    1
    32    21    16    1
    33    10     1    1
    34     7     3    1
    35    32    26   ar
    36    23    24    1
    37    23    25    1
@<TRIPOS>MOLECULE
*****
 33 37 0 0 0
SMALL
GASTEIGER

@<TRIPOS>ATOM
      1 C         142.7787  141.8052  161.6569 C.2     1  UNL1        0.4243
      2 N         141.8345  142.9233  161.9860 N.2     1  UNL1        0.0275
      3 C         141.2405  143.0235  163.3598 C.2     1  UNL1        0.3991
      4 N         140.2877  144.0069  163.9720 N.2     1  UNL1        0.0826
      5 N         140.0490  143.5968  165.3950 N.2     1  UNL1       -0.0375
      6 C         140.8544  142.3599  165.6622 C.2     1  UNL1        0.1282
      7 C         141.5907  142.0055  164.4044 C.3     1  UNL1        0.2504
      8 C         142.5350  140.8874  164.0752 C.2     1  UNL1        0.3055
      9 O         142.8852  139.8695  165.1198 O.2     1  UNL1       -0.2554
     10 N         143.1289  140.7873  162.7015 N.am    1  UNL1       -0.1358
     11 C         144.0732  139.6692  162.3723 C.3     1  UNL1        0.2167
     12 C         147.1518  142.2860  154.7536 C.3     1  UNL1        0.0335
     13 C         146.0247  141.8177  155.6254 C.3     1  UNL1        0.1294
     14 O         144.9245  140.8830  155.2179 O.3     1  UNL1       -0.3548
     15 C         144.0196  140.6895  156.3985 C.3     1  UNL1        0.1435
     16 C         144.5605  141.5046  157.5357 C.3     1  UNL1        0.0490
     17 C         143.3108  140.7452  157.8696 C.3     1  UNL1        0.0444
     18 C         142.7169  140.8455  159.2434 C.3     1  UNL1        0.1682
     19 N         143.3727  141.7050  160.2831 N.pl3   1  UNL1       -0.1900
     20 C         144.6224  142.4643  159.9492 C.3     1  UNL1        0.1682
     21 C         145.2163  142.3641  158.5755 C.3     1  UNL1        0.0444
     22 C         145.7998  142.2018  157.0578 C.3     1  UNL1        0.0808
     23 N         146.6625  143.1217  157.8699 N.3     1  UNL1       -0.3202
     24 H         146.2779  143.2061  158.8109 H       1  UNL1        0.1189
     25 H         146.6879  144.0412  157.4293 H       1  UNL1        0.1189
     26 C         140.9130  141.6092  166.9595 C.ar    1  UNL1        0.0298
     27 C         139.7569  140.7524  167.3831 C.ar    1  UNL1        0.0022
     28 C         139.8155  140.0017  168.6804 C.ar    1  UNL1        0.0010
     29 C         141.0301  140.1077  169.5541 C.ar    1  UNL1        0.0122
     30 C         142.1862  140.9644  169.1305 C.ar    1  UNL1        0.0682
     31 CL        143.4009  141.0705  170.0042 Cl      1  UNL1       -0.0814
     32 C         142.1277  141.7152  167.8332 C.ar    1  UNL1        0.0695
     33 CL        143.2837  142.5719  167.4096 Cl      1  UNL1       -0.0813
@<TRIPOS>BOND
     1    13    12    1
     2    13    14    1
     3    14    15    1
     4    15    16    1
     5    16    17    1
     6    17    18    1
     7    18    19    1
     8    19     1    1
     9     1     2    2
    10     2     3    1
    11     3     4    2
    12     4     5    1
    13     5     6    2
    14     6    26    1
    15    26    27   ar
    16    27    28   ar
    17    28    29   ar
    18    29    30   ar
    19    30    31    1
    20    30    32   ar
    21    32    33    1
    22     6     7    1
    23     7     8    1
    24     8     9    2
    25     8    10   am
    26    10    11    1
    27    19    20    1
    28    20    21    1
    29    16    22    1
    30    22    23    1
    31    22    13    1
    32    21    16    1
    33    10     1    1
    34     7     3    1
    35    32    26   ar
    36    23    24    1
    37    23    25    1
@<TRIPOS>MOLECULE
*****
 33 37 0 0 0
SMALL
GASTEIGER

@<TRIPOS>ATOM
      1 C         140.1725  139.5428  159.9754 C.2     1  UNL1        0.4243
      2 N         139.0455  140.5248  160.0995 N.2     1  UNL1        0.0275
      3 C         138.5491  140.9295  161.4560 C.2     1  UNL1        0.3991
      4 N         137.4629  141.8692  161.8881 N.2     1  UNL1        0.0826
      5 N         137.4223  141.8726  163.3875 N.2     1  UNL1       -0.0375
      6 C         138.4835  140.9349  163.8821 C.2     1  UNL1        0.1282
      7 C         139.1799  140.3520  162.6884 C.3     1  UNL1        0.2504
      8 C         140.3070  139.3700  162.5642 C.2     1  UNL1        0.3055
      9 O         140.9377  138.7925  163.7966 O.2     1  UNL1       -0.2554
     10 N         140.8032  138.9654  161.2078 N.am    1  UNL1       -0.1358
     11 C         141.9303  137.9833  161.0837 C.3     1  UNL1        0.2167
     12 C         141.7278  136.1740  152.6786 C.3     1  UNL1        0.0335
     13 C         141.9201  137.1525  153.7990 C.3     1  UNL1        0.1294
     14 O         142.9306  138.2604  153.8383 O.3     1  UNL1       -0.3548
     15 C         142.7708  138.9876  155.1406 C.3     1  UNL1        0.1435
     16 C         141.6616  138.3291  155.9061 C.3     1  UNL1        0.0490
     17 C         142.2884  139.4908  156.6183 C.3     1  UNL1        0.0444
     18 C         141.7921  139.8954  157.9747 C.3     1  UNL1        0.1682
     19 N         140.6689  139.1382  158.6189 N.pl3   1  UNL1       -0.1900
     20 C         140.0420  137.9764  157.9067 C.3     1  UNL1        0.1682
     21 C         140.5383  137.5719  156.5503 C.3     1  UNL1        0.0444
     22 C         141.1359  137.1949  155.0770 C.3     1  UNL1        0.0808
     23 N         140.0215  136.2662  155.4588 N.3     1  UNL1       -0.3202
     24 H         139.6665  136.5220  156.3802 H       1  UNL1        0.1189
     25 H         140.3706  135.3081  155.4828 H       1  UNL1        0.1189
     26 C         138.7937  140.6332  165.3183 C.ar    1  UNL1        0.0298
     27 C         138.1677  139.4454  165.9872 C.ar    1  UNL1        0.0022
     28 C         138.4779  139.1436  167.4234 C.ar    1  UNL1        0.0010
     29 C         139.4139  140.0296  168.1908 C.ar    1  UNL1        0.0122
     30 C         140.0399  141.2173  167.5219 C.ar    1  UNL1        0.0682
     31 CL        140.9759  142.1033  168.2892 Cl      1  UNL1       -0.0814
     32 C         139.7297  141.5192  166.0857 C.ar    1  UNL1        0.0695
     33 CL        140.3556  142.7069  165.4168 Cl      1  UNL1       -0.0813
@<TRIPOS>BOND
     1    13    12    1
     2    13    14    1
     3    14    15    1
     4    15    16    1
     5    16    17    1
     6    17    18    1
     7    18    19    1
     8    19     1    1
     9     1     2    2
    10     2     3    1
    11     3     4    2
    12     4     5    1
    13     5     6    2
    14     6    26    1
    15    26    27   ar
    16    27    28   ar
    17    28    29   ar
    18    29    30   ar
    19    30    31    1
    20    30    32   ar
    21    32    33    1
    22     6     7    1
    23     7     8    1
    24     8     9    2
    25     8    10   am
    26    10    11    1
    27    19    20    1
    28    20    21    1
    29    16    22    1
    30    22    23    1
    31    22    13    1
    32    21    16    1
    33    10     1    1
    34     7     3    1
    35    32    26   ar
    36    23    24    1
    37    23    25    1
@<TRIPOS>MOLECULE
*****
 33 37 0 0 0
SMALL
GASTEIGER

@<TRIPOS>ATOM
      1 C         141.7031  139.5002  161.8147 C.2     1  UNL1        0.4243
      2 N         142.6086  140.6653  162.0843 N.2     1  UNL1        0.0275
      3 C         142.8397  141.1254  163.4932 C.2     1  UNL1        0.3991
      4 N         143.6722  142.2355  164.0627 N.2     1  UNL1        0.0826
      5 N         143.5123  142.2166  165.5540 N.2     1  UNL1       -0.0375
      6 C         142.5809  141.0948  165.9061 C.2     1  UNL1        0.1282
      7 C         142.1652  140.4203  164.6325 C.3     1  UNL1        0.2504
      8 C         141.2597  139.2553  164.3629 C.2     1  UNL1        0.3055
      9 O         140.5852  138.5502  165.5022 O.2     1  UNL1       -0.2554
     10 N         141.0286  138.7952  162.9540 N.am    1  UNL1       -0.1358
     11 C         140.1231  137.6302  162.6844 C.3     1  UNL1        0.2167
     12 C         141.9223  136.3019  154.2825 C.3     1  UNL1        0.0335
     13 C         141.3230  137.0729  155.4210 C.3     1  UNL1        0.1294
     14 O         139.9852  137.7514  155.4189 O.3     1  UNL1       -0.3548
     15 C         139.7916  138.3987  156.7582 C.3     1  UNL1        0.1435
     16 C         141.0097  138.1201  157.5881 C.3     1  UNL1        0.0490
     17 C         139.9668  138.9378  158.2907 C.3     1  UNL1        0.0444
     18 C         140.1979  139.3978  159.6995 C.3     1  UNL1        0.1682
     19 N         141.4720  139.0402  160.4058 N.pl3   1  UNL1       -0.1900
     20 C         142.5149  138.2225  159.7032 C.3     1  UNL1        0.1682
     21 C         142.2838  137.7625  158.2944 C.3     1  UNL1        0.0444
     22 C         141.9562  137.3007  156.7616 C.3     1  UNL1        0.0808
     23 N         143.2998  136.7976  157.1990 N.3     1  UNL1       -0.3202
     24 H         143.4802  137.0985  158.1568 H       1  UNL1        0.1189
     25 H         144.0207  137.1735  156.5831 H       1  UNL1        0.1189
     26 C         142.1422  140.7142  167.2892 C.ar    1  UNL1        0.0298
     27 C         142.7897  139.5564  167.9893 C.ar    1  UNL1        0.0022
     28 C         142.3511  139.1758  169.3724 C.ar    1  UNL1        0.0010
     29 C         141.2651  139.9530  170.0553 C.ar    1  UNL1        0.0122
     30 C         140.6176  141.1109  169.3552 C.ar    1  UNL1        0.0682
     31 CL        139.5316  141.8882  170.0380 Cl      1  UNL1       -0.0814
     32 C         141.0562  141.4915  167.9721 C.ar    1  UNL1        0.0695
     33 CL        140.4088  142.6493  167.2720 Cl      1  UNL1       -0.0813
@<TRIPOS>BOND
     1    13    12    1
     2    13    14    1
     3    14    15    1
     4    15    16    1
     5    16    17    1
     6    17    18    1
     7    18    19    1
     8    19     1    1
     9     1     2    2
    10     2     3    1
    11     3     4    2
    12     4     5    1
    13     5     6    2
    14     6    26    1
    15    26    27   ar
    16    27    28   ar
    17    28    29   ar
    18    29    30   ar
    19    30    31    1
    20    30    32   ar
    21    32    33    1
    22     6     7    1
    23     7     8    1
    24     8     9    2
    25     8    10   am
    26    10    11    1
    27    19    20    1
    28    20    21    1
    29    16    22    1
    30    22    23    1
    31    22    13    1
    32    21    16    1
    33    10     1    1
    34     7     3    1
    35    32    26   ar
    36    23    24    1
    37    23    25    1
@<TRIPOS>MOLECULE
*****
 33 37 0 0 0
SMALL
GASTEIGER

@<TRIPOS>ATOM
      1 C         140.0500  142.0268  161.6403 C.2     1  UNL1        0.4243
      2 N         140.8912  140.7994  161.8295 N.2     1  UNL1        0.0275
      3 C         141.1669  140.2848  163.2113 C.2     1  UNL1        0.3991
      4 N         141.9550  139.1081  163.7053 N.2     1  UNL1        0.0826
      5 N         141.8764  139.0935  165.2032 N.2     1  UNL1       -0.0375
      6 C         141.0398  140.2613  165.6348 C.2     1  UNL1        0.1282
      7 C         140.6013  140.9975  164.4038 C.3     1  UNL1        0.2504
      8 C         139.7600  142.2250  164.2145 C.2     1  UNL1        0.3055
      9 O         139.1944  142.9377  165.4070 O.2     1  UNL1       -0.2554
     10 N         139.4844  142.7395  162.8328 N.am    1  UNL1       -0.1358
     11 C         138.6431  143.9670  162.6435 C.3     1  UNL1        0.2167
     12 C         137.2254  143.8659  154.1803 C.3     1  UNL1        0.0335
     13 C         138.1781  143.9430  155.3363 C.3     1  UNL1        0.1294
     14 O         139.4195  144.7825  155.4013 O.3     1  UNL1       -0.3548
     15 C         140.0653  144.5525  156.7356 C.3     1  UNL1        0.1435
     16 C         139.2230  143.5707  157.4952 C.3     1  UNL1        0.0490
     17 C         140.4359  144.0405  158.2423 C.3     1  UNL1        0.0444
     18 C         140.7115  143.5258  159.6240 C.3     1  UNL1        0.1682
     19 N         139.7743  142.5414  160.2585 N.pl3   1  UNL1       -0.1900
     20 C         138.5614  142.0717  159.5114 C.3     1  UNL1        0.1682
     21 C         138.2858  142.5864  158.1297 C.3     1  UNL1        0.0444
     22 C         138.0566  143.1941  156.6303 C.3     1  UNL1        0.0808
     23 N         136.9613  142.2366  156.9955 N.3     1  UNL1       -0.3202
     24 H         137.1270  141.8721  157.9336 H       1  UNL1        0.1189
     25 H         136.9477  141.4651  156.3284 H       1  UNL1        0.1189
     26 C         140.7012  140.6284  167.0493 C.ar    1  UNL1        0.0298
     27 C         139.5688  139.9401  167.7521 C.ar    1  UNL1        0.0022
     28 C         139.2301  140.3071  169.1665 C.ar    1  UNL1        0.0010
     29 C         140.0238  141.3623  169.8782 C.ar    1  UNL1        0.0122
     30 C         141.1562  142.0506  169.1754 C.ar    1  UNL1        0.0682
     31 CL        141.9500  143.1058  169.8869 Cl      1  UNL1       -0.0814
     32 C         141.4949  141.6836  167.7609 C.ar    1  UNL1        0.0695
     33 CL        142.6273  142.3719  167.0581 Cl      1  UNL1       -0.0813
@<TRIPOS>BOND
     1    13    12    1
     2    13    14    1
     3    14    15    1
     4    15    16    1
     5    16    17    1
     6    17    18    1
     7    18    19    1
     8    19     1    1
     9     1     2    2
    10     2     3    1
    11     3     4    2
    12     4     5    1
    13     5     6    2
    14     6    26    1
    15    26    27   ar
    16    27    28   ar
    17    28    29   ar
    18    29    30   ar
    19    30    31    1
    20    30    32   ar
    21    32    33    1
    22     6     7    1
    23     7     8    1
    24     8     9    2
    25     8    10   am
    26    10    11    1
    27    19    20    1
    28    20    21    1
    29    16    22    1
    30    22    23    1
    31    22    13    1
    32    21    16    1
    33    10     1    1
    34     7     3    1
    35    32    26   ar
    36    23    24    1
    37    23    25    1
