@<TRIPOS>MOLECULE
*****
 22 24 0 0 0
SMALL
GASTEIGER

@<TRIPOS>ATOM
      1 C         141.8821  139.5632  167.6645 C.3     1  UNL1        0.0629
      2 C         143.0762  138.8931  167.0521 C.3     1  UNL1        0.0247
      3 C         143.0170  138.4036  165.6355 C.3     1  UNL1        0.0690
      4 N         141.7637  138.5842  164.8313 N.3     1  UNL1       -0.2985
      5 C         140.5697  139.2542  165.4438 C.3     1  UNL1        0.0548
      6 C         140.6289  139.7437  166.8604 C.3     1  UNL1        0.0234
      7 H         141.4629  137.6535  164.5419 H       1  UNL1        0.1232
      8 O         140.7247  142.0767  172.1616 O.2     1  UNL1       -0.2645
      9 C         141.4092  141.2081  171.1483 C.ar    1  UNL1        0.2884
     10 C         140.9680  140.9909  169.7312 C.ar    1  UNL1        0.0986
     11 C         141.9413  140.0527  169.0812 C.ar    1  UNL1        0.1547
     12 O         142.9841  139.6901  170.0966 O.2     1  UNL1       -0.3802
     13 N         142.6553  140.4041  171.3741 N.ar    1  UNL1       -0.1839
     14 H         143.1674  140.3539  172.2134 H       1  UNL1        0.2107
     15 C         139.3164  139.4348  164.6396 C.3     1  UNL1        0.0204
     16 C         138.2912  140.4437  165.0649 C.3     1  UNL1        0.0277
     17 C         138.4230  141.8744  164.6339 C.ar    1  UNL1       -0.0221
     18 C         139.3666  142.7909  165.3548 C.ar    1  UNL1       -0.0043
     19 C         139.4985  144.2216  164.9238 C.ar    1  UNL1       -0.0003
     20 C         138.6866  144.7358  163.7720 C.ar    1  UNL1       -0.0000
     21 C         137.7430  143.8193  163.0512 C.ar    1  UNL1       -0.0003
     22 C         137.6112  142.3886  163.4822 C.ar    1  UNL1       -0.0043
@<TRIPOS>BOND
     1     8     9    2
     2     9    10   ar
     3    10    11   ar
     4     1    11    1
     5     1     2    1
     6     2     3    1
     7     3     4    1
     8     4     5    1
     9     5    15    1
    10    15    16    1
    11    16    17    1
    12    17    18   ar
    13    18    19   ar
    14    19    20   ar
    15    20    21   ar
    16    21    22   ar
    17     5     6    1
    18    11    12   ar
    19    12    13   ar
    20    13     9   ar
    21     6     1    1
    22    22    17   ar
    23     4     7    1
    24    13    14    1
@<TRIPOS>MOLECULE
*****
 22 24 0 0 0
SMALL
GASTEIGER

@<TRIPOS>ATOM
      1 C         139.1627  142.2926  165.1864 C.3     1  UNL1        0.0629
      2 C         140.1914  142.5870  166.2376 C.3     1  UNL1        0.0247
      3 C         140.4989  141.5661  167.2927 C.3     1  UNL1        0.0690
      4 N         139.7777  140.2509  167.2965 N.3     1  UNL1       -0.2985
      5 C         138.7490  139.9565  166.2453 C.3     1  UNL1        0.0548
      6 C         138.4415  140.9774  165.1902 C.3     1  UNL1        0.0234
      7 H         139.3070  140.1758  168.1983 H       1  UNL1        0.1232
      8 O         139.6141  146.3651  161.8558 O.2     1  UNL1       -0.2645
      9 C         139.0627  145.1854  162.6003 C.ar    1  UNL1        0.2884
     10 C         139.7758  144.4005  163.6612 C.ar    1  UNL1        0.0986
     11 C         138.8552  143.3135  164.1312 C.ar    1  UNL1        0.1547
     12 O         137.5731  143.4266  163.3609 O.2     1  UNL1       -0.3802
     13 N         137.7013  144.5835  162.4148 N.ar    1  UNL1       -0.1839
     14 H         137.0128  144.8934  161.7830 H       1  UNL1        0.2107
     15 C         138.0278  138.6413  166.2492 C.3     1  UNL1        0.0204
     16 C         138.6532  137.4411  165.6023 C.3     1  UNL1        0.0277
     17 C         139.4723  137.6022  164.3561 C.ar    1  UNL1       -0.0221
     18 C         138.7949  137.8377  163.0386 C.ar    1  UNL1       -0.0043
     19 C         139.6141  137.9988  161.7924 C.ar    1  UNL1       -0.0003
     20 C         141.1106  137.9245  161.8637 C.ar    1  UNL1       -0.0000
     21 C         141.7879  137.6891  163.1812 C.ar    1  UNL1       -0.0003
     22 C         140.9687  137.5279  164.4274 C.ar    1  UNL1       -0.0043
@<TRIPOS>BOND
     1     8     9    2
     2     9    10   ar
     3    10    11   ar
     4     1    11    1
     5     1     2    1
     6     2     3    1
     7     3     4    1
     8     4     5    1
     9     5    15    1
    10    15    16    1
    11    16    17    1
    12    17    18   ar
    13    18    19   ar
    14    19    20   ar
    15    20    21   ar
    16    21    22   ar
    17     5     6    1
    18    11    12   ar
    19    12    13   ar
    20    13     9   ar
    21     6     1    1
    22    22    17   ar
    23     4     7    1
    24    13    14    1
@<TRIPOS>MOLECULE
*****
 22 24 0 0 0
SMALL
GASTEIGER

@<TRIPOS>ATOM
      1 C         141.7852  142.3834  167.1658 C.3     1  UNL1        0.0629
      2 C         143.0216  142.0842  166.3710 C.3     1  UNL1        0.0247
      3 C         142.9512  142.0090  164.8746 C.3     1  UNL1        0.0690
      4 N         141.6445  142.2328  164.1730 N.3     1  UNL1       -0.2985
      5 C         140.4081  142.5319  164.9678 C.3     1  UNL1        0.0548
      6 C         140.4784  142.6072  166.4642 C.3     1  UNL1        0.0234
      7 H         141.4511  141.3885  163.6342 H       1  UNL1        0.1232
      8 O         140.4777  142.1134  172.2745 O.2     1  UNL1       -0.2645
      9 C         141.2544  142.3345  171.0105 C.ar    1  UNL1        0.2884
     10 C         140.7494  142.1147  169.6154 C.ar    1  UNL1        0.0986
     11 C         141.8555  142.4587  168.6623 C.ar    1  UNL1        0.1547
     12 O         143.0442  142.8912  169.4685 O.2     1  UNL1       -0.3802
     13 N         142.6727  142.8145  170.9198 N.ar    1  UNL1       -0.1839
     14 H         143.2572  143.0396  171.6793 H       1  UNL1        0.2107
     15 C         139.1013  142.7558  164.2662 C.3     1  UNL1        0.0204
     16 C         137.9711  141.7887  164.4592 C.3     1  UNL1        0.0277
     17 C         138.2580  140.3301  164.6595 C.ar    1  UNL1       -0.0221
     18 C         138.0653  139.7064  166.0101 C.ar    1  UNL1       -0.0043
     19 C         138.3522  138.2478  166.2104 C.ar    1  UNL1       -0.0003
     20 C         138.8319  137.4129  165.0602 C.ar    1  UNL1       -0.0000
     21 C         139.0246  138.0366  163.7097 C.ar    1  UNL1       -0.0003
     22 C         138.7377  139.4952  163.5094 C.ar    1  UNL1       -0.0043
@<TRIPOS>BOND
     1     8     9    2
     2     9    10   ar
     3    10    11   ar
     4     1    11    1
     5     1     2    1
     6     2     3    1
     7     3     4    1
     8     4     5    1
     9     5    15    1
    10    15    16    1
    11    16    17    1
    12    17    18   ar
    13    18    19   ar
    14    19    20   ar
    15    20    21   ar
    16    21    22   ar
    17     5     6    1
    18    11    12   ar
    19    12    13   ar
    20    13     9   ar
    21     6     1    1
    22    22    17   ar
    23     4     7    1
    24    13    14    1
@<TRIPOS>MOLECULE
*****
 22 24 0 0 0
SMALL
GASTEIGER

@<TRIPOS>ATOM
      1 C         141.8013  139.8785  167.3975 C.3     1  UNL1        0.0629
      2 C         140.4649  139.6514  166.7553 C.3     1  UNL1        0.0247
      3 C         140.3826  139.2992  165.2996 C.3     1  UNL1        0.0690
      4 N         141.6366  139.1740  164.4861 N.3     1  UNL1       -0.2985
      5 C         142.9730  139.4011  165.1283 C.3     1  UNL1        0.0548
      6 C         143.0553  139.7533  166.5840 C.3     1  UNL1        0.0234
      7 H         141.5597  139.8446  163.7214 H       1  UNL1        0.1232
      8 O         140.7268  141.9628  172.1285 O.2     1  UNL1       -0.2645
      9 C         141.3898  141.1888  171.0279 C.ar    1  UNL1        0.2884
     10 C         140.9279  141.1109  169.6029 C.ar    1  UNL1        0.0986
     11 C         141.8837  140.2307  168.8533 C.ar    1  UNL1        0.1547
     12 O         142.9362  139.7647  169.8150 O.2     1  UNL1       -0.3802
     13 N         142.6310  140.3568  171.1590 N.ar    1  UNL1       -0.1839
     14 H         143.1536  140.2228  171.9825 H       1  UNL1        0.2107
     15 C         144.2270  139.2760  164.3149 C.3     1  UNL1        0.0204
     16 C         145.2304  140.3909  164.3072 C.3     1  UNL1        0.0277
     17 C         144.8191  141.7672  163.8751 C.ar    1  UNL1       -0.0221
     18 C         144.7801  142.1149  162.4164 C.ar    1  UNL1       -0.0043
     19 C         144.3688  143.4911  161.9842 C.ar    1  UNL1       -0.0003
     20 C         143.9965  144.5197  163.0107 C.ar    1  UNL1       -0.0000
     21 C         144.0355  144.1719  164.4693 C.ar    1  UNL1       -0.0003
     22 C         144.4468  142.7956  164.9015 C.ar    1  UNL1       -0.0043
@<TRIPOS>BOND
     1     8     9    2
     2     9    10   ar
     3    10    11   ar
     4     1    11    1
     5     1     2    1
     6     2     3    1
     7     3     4    1
     8     4     5    1
     9     5    15    1
    10    15    16    1
    11    16    17    1
    12    17    18   ar
    13    18    19   ar
    14    19    20   ar
    15    20    21   ar
    16    21    22   ar
    17     5     6    1
    18    11    12   ar
    19    12    13   ar
    20    13     9   ar
    21     6     1    1
    22    22    17   ar
    23     4     7    1
    24    13    14    1
@<TRIPOS>MOLECULE
*****
 22 24 0 0 0
SMALL
GASTEIGER

@<TRIPOS>ATOM
      1 C         140.3691  141.7341  167.3096 C.3     1  UNL1        0.0629
      2 C         140.1331  142.5959  166.1048 C.3     1  UNL1        0.0247
      3 C         139.1930  142.1395  165.0288 C.3     1  UNL1        0.0690
      4 N         138.4888  140.8213  165.1576 N.3     1  UNL1       -0.2985
      5 C         138.7249  139.9595  166.3623 C.3     1  UNL1        0.0548
      6 C         139.6650  140.4158  167.4383 C.3     1  UNL1        0.0234
      7 H         138.7511  140.2666  164.3428 H       1  UNL1        0.1232
      8 O         144.7861  142.7769  170.0085 O.2     1  UNL1       -0.2645
      9 C         143.3396  142.6697  169.6262 C.ar    1  UNL1        0.2884
     10 C         142.8060  142.0980  168.3462 C.ar    1  UNL1        0.0986
     11 C         141.3093  142.1904  168.3856 C.ar    1  UNL1        0.1547
     12 O         140.9180  142.8192  169.6900 O.2     1  UNL1       -0.3802
     13 N         142.1727  143.1155  170.4567 N.ar    1  UNL1       -0.1839
     14 H         142.2217  143.5297  171.3485 H       1  UNL1        0.2107
     15 C         138.0208  138.6413  166.4911 C.3     1  UNL1        0.0204
     16 C         138.5608  137.4308  165.7889 C.3     1  UNL1        0.0277
     17 C         139.4380  137.5924  164.5829 C.ar    1  UNL1       -0.0221
     18 C         138.8230  137.7457  163.2233 C.ar    1  UNL1       -0.0043
     19 C         139.7002  137.9072  162.0173 C.ar    1  UNL1       -0.0003
     20 C         141.1924  137.9155  162.1709 C.ar    1  UNL1       -0.0000
     21 C         141.8073  137.7622  163.5304 C.ar    1  UNL1       -0.0003
     22 C         140.9301  137.6006  164.7364 C.ar    1  UNL1       -0.0043
@<TRIPOS>BOND
     1     8     9    2
     2     9    10   ar
     3    10    11   ar
     4     1    11    1
     5     1     2    1
     6     2     3    1
     7     3     4    1
     8     4     5    1
     9     5    15    1
    10    15    16    1
    11    16    17    1
    12    17    18   ar
    13    18    19   ar
    14    19    20   ar
    15    20    21   ar
    16    21    22   ar
    17     5     6    1
    18    11    12   ar
    19    12    13   ar
    20    13     9   ar
    21     6     1    1
    22    22    17   ar
    23     4     7    1
    24    13    14    1
@<TRIPOS>MOLECULE
*****
 22 24 0 0 0
SMALL
GASTEIGER

@<TRIPOS>ATOM
      1 C         139.9159  139.8512  166.7781 C.3     1  UNL1        0.0629
      2 C         141.2880  139.5356  166.2609 C.3     1  UNL1        0.0247
      3 C         141.5220  139.4077  164.7848 C.3     1  UNL1        0.0690
      4 N         140.3839  139.5956  163.8260 N.3     1  UNL1       -0.2985
      5 C         139.0118  139.9113  164.3432 C.3     1  UNL1        0.0548
      6 C         138.7778  140.0391  165.8193 C.3     1  UNL1        0.0234
      7 H         140.3049  138.7315  163.2898 H       1  UNL1        0.1232
      8 O         140.6158  140.9349  171.8984 O.2     1  UNL1       -0.2645
      9 C         140.0036  140.4772  170.6078 C.ar    1  UNL1        0.2884
     10 C         140.6476  140.5418  169.2546 C.ar    1  UNL1        0.0986
     11 C         139.6818  139.9791  168.2543 C.ar    1  UNL1        0.1547
     12 O         138.4410  139.5666  168.9892 O.2     1  UNL1       -0.3802
     13 N         138.6398  139.8744  170.4437 N.ar    1  UNL1       -0.1839
     14 H         137.9894  139.7098  171.1642 H       1  UNL1        0.2107
     15 C         137.8737  140.0992  163.3843 C.3     1  UNL1        0.0204
     16 C         137.3166  141.4705  163.1410 C.3     1  UNL1        0.0277
     17 C         138.1551  142.6817  163.4235 C.ar    1  UNL1       -0.0221
     18 C         137.8861  143.5122  164.6433 C.ar    1  UNL1       -0.0043
     19 C         138.7246  144.7235  164.9258 C.ar    1  UNL1       -0.0003
     20 C         139.8322  145.1041  163.9885 C.ar    1  UNL1       -0.0000
     21 C         140.1011  144.2736  162.7687 C.ar    1  UNL1       -0.0003
     22 C         139.2626  143.0624  162.4862 C.ar    1  UNL1       -0.0043
@<TRIPOS>BOND
     1     8     9    2
     2     9    10   ar
     3    10    11   ar
     4     1    11    1
     5     1     2    1
     6     2     3    1
     7     3     4    1
     8     4     5    1
     9     5    15    1
    10    15    16    1
    11    16    17    1
    12    17    18   ar
    13    18    19   ar
    14    19    20   ar
    15    20    21   ar
    16    21    22   ar
    17     5     6    1
    18    11    12   ar
    19    12    13   ar
    20    13     9   ar
    21     6     1    1
    22    22    17   ar
    23     4     7    1
    24    13    14    1
@<TRIPOS>MOLECULE
*****
 22 24 0 0 0
SMALL
GASTEIGER

@<TRIPOS>ATOM
      1 C         139.7509  139.9223  167.7277 C.3     1  UNL1        0.0629
      2 C         138.4662  139.2065  167.4326 C.3     1  UNL1        0.0247
      3 C         138.1118  138.8541  166.0183 C.3     1  UNL1        0.0690
      4 N         139.0420  139.2175  164.8992 N.3     1  UNL1       -0.2985
      5 C         140.3267  139.9334  165.1942 C.3     1  UNL1        0.0548
      6 C         140.6811  140.2858  166.6085 C.3     1  UNL1        0.0234
      7 H         138.5146  139.8110  164.2589 H       1  UNL1        0.1232
      8 O         141.7521  142.4128  171.9317 O.2     1  UNL1       -0.2645
      9 C         141.0252  141.4196  171.0743 C.ar    1  UNL1        0.2884
     10 C         140.9195  141.4566  169.5785 C.ar    1  UNL1        0.0986
     11 C         140.1053  140.2748  169.1420 C.ar    1  UNL1        0.1547
     12 O         139.7080  139.5074  170.3680 O.2     1  UNL1       -0.3802
     13 N         140.2765  140.2148  171.5622 N.ar    1  UNL1       -0.1839
     14 H         140.1758  139.9372  172.5014 H       1  UNL1        0.2107
     15 C         141.2569  140.2968  164.0751 C.3     1  UNL1        0.0204
     16 C         141.2456  141.6870  163.5119 C.3     1  UNL1        0.0277
     17 C         140.0979  142.6066  163.8073 C.ar    1  UNL1       -0.0221
     18 C         140.1963  143.5902  164.9356 C.ar    1  UNL1       -0.0043
     19 C         139.0486  144.5098  165.2310 C.ar    1  UNL1       -0.0003
     20 C         137.8026  144.4457  164.3983 C.ar    1  UNL1       -0.0000
     21 C         137.7043  143.4621  163.2701 C.ar    1  UNL1       -0.0003
     22 C         138.8520  142.5425  162.9746 C.ar    1  UNL1       -0.0043
@<TRIPOS>BOND
     1     8     9    2
     2     9    10   ar
     3    10    11   ar
     4     1    11    1
     5     1     2    1
     6     2     3    1
     7     3     4    1
     8     4     5    1
     9     5    15    1
    10    15    16    1
    11    16    17    1
    12    17    18   ar
    13    18    19   ar
    14    19    20   ar
    15    20    21   ar
    16    21    22   ar
    17     5     6    1
    18    11    12   ar
    19    12    13   ar
    20    13     9   ar
    21     6     1    1
    22    22    17   ar
    23     4     7    1
    24    13    14    1
@<TRIPOS>MOLECULE
*****
 22 24 0 0 0
SMALL
GASTEIGER

@<TRIPOS>ATOM
      1 C         142.6923  140.2879  167.5834 C.3     1  UNL1        0.0629
      2 C         143.0485  138.9161  167.0921 C.3     1  UNL1        0.0247
      3 C         143.3017  138.6848  165.6319 C.3     1  UNL1        0.0690
      4 N         143.1988  139.8253  164.6630 N.3     1  UNL1       -0.2985
      5 C         142.8426  141.1970  165.1543 C.3     1  UNL1        0.0548
      6 C         142.5894  141.4283  166.6145 C.3     1  UNL1        0.0234
      7 H         142.4907  139.5653  163.9764 H       1  UNL1        0.1232
      8 O         140.6197  142.0745  172.0994 O.2     1  UNL1       -0.2645
      9 C         141.4863  141.3405  171.1195 C.ar    1  UNL1        0.2884
     10 C         141.3794  141.4079  169.6248 C.ar    1  UNL1        0.0986
     11 C         142.4390  140.5192  169.0437 C.ar    1  UNL1        0.1547
     12 O         143.2008  139.9026  170.1792 O.2     1  UNL1       -0.3802
     13 N         142.6120  140.4102  171.4621 N.ar    1  UNL1       -0.1839
     14 H         142.9118  140.1741  172.3697 H       1  UNL1        0.2107
     15 C         142.7397  142.3374  164.1853 C.3     1  UNL1        0.0204
     16 C         141.9905  143.5798  164.5661 C.3     1  UNL1        0.0277
     17 C         140.5556  143.7443  164.1609 C.ar    1  UNL1       -0.0221
     18 C         140.1439  143.4926  162.7406 C.ar    1  UNL1       -0.0043
     19 C         138.7091  143.6570  162.3353 C.ar    1  UNL1       -0.0003
     20 C         137.6860  144.0732  163.3503 C.ar    1  UNL1       -0.0000
     21 C         138.0978  144.3249  164.7705 C.ar    1  UNL1       -0.0003
     22 C         139.5326  144.1604  165.1758 C.ar    1  UNL1       -0.0043
@<TRIPOS>BOND
     1     8     9    2
     2     9    10   ar
     3    10    11   ar
     4     1    11    1
     5     1     2    1
     6     2     3    1
     7     3     4    1
     8     4     5    1
     9     5    15    1
    10    15    16    1
    11    16    17    1
    12    17    18   ar
    13    18    19   ar
    14    19    20   ar
    15    20    21   ar
    16    21    22   ar
    17     5     6    1
    18    11    12   ar
    19    12    13   ar
    20    13     9   ar
    21     6     1    1
    22    22    17   ar
    23     4     7    1
    24    13    14    1
@<TRIPOS>MOLECULE
*****
 22 24 0 0 0
SMALL
GASTEIGER

@<TRIPOS>ATOM
      1 C         141.3163  144.0295  162.6102 C.3     1  UNL1        0.0629
      2 C         140.9592  145.3651  162.0282 C.3     1  UNL1        0.0247
      3 C         139.5296  145.8189  162.0139 C.3     1  UNL1        0.0690
      4 N         138.4571  144.9372  162.5816 N.3     1  UNL1       -0.2985
      5 C         138.8142  143.6017  163.1637 C.3     1  UNL1        0.0548
      6 C         140.2438  143.1478  163.1780 C.3     1  UNL1        0.0234
      7 H         137.7911  144.7619  161.8292 H       1  UNL1        0.1232
      8 O         145.8064  141.6197  163.9932 O.2     1  UNL1       -0.2645
      9 C         144.8098  142.4680  163.2602 C.ar    1  UNL1        0.2884
     10 C         143.3661  142.6467  163.6258 C.ar    1  UNL1        0.0986
     11 C         142.7460  143.5757  162.6245 C.ar    1  UNL1        0.1547
     12 O         143.8064  143.9710  161.6401 O.2     1  UNL1       -0.3802
     13 N         145.0820  143.2864  162.0330 N.ar    1  UNL1       -0.1839
     14 H         145.9461  143.3612  161.5671 H       1  UNL1        0.2107
     15 C         137.7417  142.7200  163.7315 C.3     1  UNL1        0.0204
     16 C         137.4733  141.3768  163.1200 C.3     1  UNL1        0.0277
     17 C         138.0059  140.1357  163.7726 C.ar    1  UNL1       -0.0221
     18 C         138.1161  140.0622  165.2668 C.ar    1  UNL1       -0.0043
     19 C         138.6488  138.8210  165.9194 C.ar    1  UNL1       -0.0003
     20 C         139.0713  137.6534  165.0778 C.ar    1  UNL1       -0.0000
     21 C         138.9611  137.7270  163.5836 C.ar    1  UNL1       -0.0003
     22 C         138.4284  138.9681  162.9311 C.ar    1  UNL1       -0.0043
@<TRIPOS>BOND
     1     8     9    2
     2     9    10   ar
     3    10    11   ar
     4     1    11    1
     5     1     2    1
     6     2     3    1
     7     3     4    1
     8     4     5    1
     9     5    15    1
    10    15    16    1
    11    16    17    1
    12    17    18   ar
    13    18    19   ar
    14    19    20   ar
    15    20    21   ar
    16    21    22   ar
    17     5     6    1
    18    11    12   ar
    19    12    13   ar
    20    13     9   ar
    21     6     1    1
    22    22    17   ar
    23     4     7    1
    24    13    14    1
