@<TRIPOS>MOLECULE
*****
 37 41 0 0 0
SMALL
GASTEIGER

@<TRIPOS>ATOM
      1 N         143.0812  137.0476  159.2092 N.am    1  UNL1       -0.3018
      2 C         142.5289  137.7407  157.9990 C.2     1  UNL1        0.2425
      3 O         141.8726  139.0824  158.1373 O.2     1  UNL1       -0.2733
      4 H         143.5120  136.1670  159.1184 H       1  UNL1        0.1495
      5 N         142.8299  138.6136  162.4648 N.3     1  UNL1       -0.2711
      6 C         141.8503  138.0312  161.4894 C.3     1  UNL1        0.0933
      7 C         142.9771  137.6963  160.5577 C.3     1  UNL1        0.1035
      8 C         143.9566  138.2786  161.5330 C.3     1  UNL1        0.0933
      9 C         142.5176  140.5595  166.5103 C.3     1  UNL1        0.0421
     10 C         142.8418  139.0988  166.4035 C.3     1  UNL1        0.0074
     11 C         142.9458  138.4502  165.0551 C.3     1  UNL1        0.0163
     12 C         142.7258  139.2622  163.8133 C.3     1  UNL1        0.0576
     13 C         142.4017  140.7229  163.9199 C.3     1  UNL1        0.0163
     14 C         142.2976  141.3715  165.2684 C.3     1  UNL1        0.0074
     15 C         140.8574  141.8201  171.3615 C.3     1  UNL1        0.1537
     16 N         141.6505  141.7875  170.0887 N.ar    1  UNL1       -0.2477
     17 C         142.8562  142.6244  169.7794 C.ar    1  UNL1        0.0964
     18 C         143.3279  142.2663  168.4012 C.ar    1  UNL1        0.0366
     19 C         142.4136  141.2080  167.8588 C.ar    1  UNL1        0.0797
     20 N         141.3769  140.9121  168.9017 N.ar    1  UNL1       -0.1736
     21 C         142.6330  137.0921  156.6505 C.3     1  UNL1        0.1747
     22 N         141.9559  135.7779  156.3961 N.pl3   1  UNL1       -0.3093
     23 H         141.0237  135.7574  156.0802 H       1  UNL1        0.1487
     24 C         142.6992  134.4949  156.6230 C.ar    1  UNL1        0.1500
     25 N         143.9167  134.3213  157.4819 N.ar    1  UNL1       -0.1544
     26 N         144.3254  132.8794  157.4205 N.ar    1  UNL1       -0.2476
     27 C         145.4939  132.2632  158.1312 C.3     1  UNL1        0.1537
     28 C         143.3606  132.1618  156.5237 C.ar    1  UNL1        0.0807
     29 C         143.2675  130.7283  156.0923 C.ar    1  UNL1        0.0188
     30 C         142.1692  130.2932  155.1679 C.ar    1  UNL1        0.0054
     31 C         141.1642  131.2916  154.6750 C.ar    1  UNL1        0.0716
     32 C         141.2574  132.7252  155.1064 C.ar    1  UNL1        0.0082
     33 C         142.3556  133.1603  156.0308 C.ar    1  UNL1        0.0503
     34 C         140.0659  130.8565  153.7506 C.3     1  UNL1        0.4186
     35 F         138.9677  130.4213  152.8261 F       1  UNL1       -0.1659
     36 F         139.1445  130.6917  154.9227 F       1  UNL1       -0.1659
     37 F         140.9873  131.0212  152.5784 F       1  UNL1       -0.1659
@<TRIPOS>BOND
     1    15    16    1
     2    16    17   ar
     3    17    18   ar
     4    18    19   ar
     5     9    19    1
     6     9    10    1
     7    10    11    1
     8    11    12    1
     9    12     5    1
    10     5     6    1
    11     6     7    1
    12     7     1    1
    13     1     2   am
    14     2     3    2
    15     2    21    1
    16    21    22    1
    17    22    24    1
    18    24    25   ar
    19    25    26   ar
    20    26    27    1
    21    26    28   ar
    22    28    29   ar
    23    29    30   ar
    24    30    31   ar
    25    31    34    1
    26    34    35    1
    27    34    36    1
    28    34    37    1
    29    31    32   ar
    30    32    33   ar
    31     7     8    1
    32    12    13    1
    33    13    14    1
    34    19    20   ar
    35    20    16   ar
    36    14     9    1
    37     8     5    1
    38    33    24   ar
    39    33    28   ar
    40     1     4    1
    41    22    23    1
@<TRIPOS>MOLECULE
*****
 37 41 0 0 0
SMALL
GASTEIGER

@<TRIPOS>ATOM
      1 N         139.4030  143.0609  161.5796 N.am    1  UNL1       -0.3018
      2 C         138.1349  142.9807  162.3767 C.2     1  UNL1        0.2425
      3 O         137.2683  141.7597  162.2866 O.2     1  UNL1       -0.2733
      4 H         139.9718  143.8623  161.6387 H       1  UNL1        0.1495
      5 N         140.3723  140.3064  159.4376 N.3     1  UNL1       -0.2711
      6 C         140.2172  140.4955  160.9176 C.3     1  UNL1        0.0933
      7 C         139.8045  141.9200  160.6923 C.3     1  UNL1        0.1035
      8 C         139.9596  141.7309  159.2124 C.3     1  UNL1        0.0933
      9 C         141.5767  136.8838  156.7759 C.3     1  UNL1        0.0421
     10 C         142.5862  137.5162  157.6876 C.3     1  UNL1        0.0074
     11 C         142.1847  138.6571  158.5747 C.3     1  UNL1        0.0163
     12 C         140.7738  139.1656  158.5504 C.3     1  UNL1        0.0576
     13 C         139.7643  138.5332  157.6388 C.3     1  UNL1        0.0163
     14 C         140.1658  137.3923  156.7515 C.3     1  UNL1        0.0074
     15 C         143.4042  132.2170  155.1141 C.3     1  UNL1        0.1537
     16 N         142.8183  133.5978  155.1249 N.ar    1  UNL1       -0.2477
     17 C         142.3743  134.3766  153.9222 C.ar    1  UNL1        0.0964
     18 C         141.8552  135.7023  154.3943 C.ar    1  UNL1        0.0366
     19 C         141.9783  135.7429  155.8887 C.ar    1  UNL1        0.0797
     20 N         142.5736  134.4422  156.3402 N.ar    1  UNL1       -0.1736
     21 C         137.7335  144.1216  163.2639 C.3     1  UNL1        0.1747
     22 N         138.5316  144.4305  164.4959 N.pl3   1  UNL1       -0.3093
     23 H         138.0812  144.7754  165.3006 H       1  UNL1        0.1487
     24 C         140.0158  144.2138  164.5019 C.ar    1  UNL1        0.1500
     25 N         141.0110  144.9025  163.6157 N.ar    1  UNL1       -0.1544
     26 N         142.3757  144.3846  163.9612 N.ar    1  UNL1       -0.2476
     27 C         143.6657  144.8022  163.3197 C.3     1  UNL1        0.1537
     28 C         142.2240  143.3759  165.0610 C.ar    1  UNL1        0.0807
     29 C         143.2255  142.5399  165.8013 C.ar    1  UNL1        0.0188
     30 C         142.7685  141.5983  166.8757 C.ar    1  UNL1        0.0054
     31 C         141.3100  141.4927  167.2099 C.ar    1  UNL1        0.0716
     32 C         140.3085  142.3287  166.4696 C.ar    1  UNL1        0.0082
     33 C         140.7655  143.2703  165.3951 C.ar    1  UNL1        0.0503
     34 C         140.8530  140.5510  168.2844 C.3     1  UNL1        0.4186
     35 F         140.3960  139.6094  169.3588 F       1  UNL1       -0.1659
     36 F         141.8381  139.5263  167.8054 F       1  UNL1       -0.1659
     37 F         139.8679  141.5757  168.7634 F       1  UNL1       -0.1659
@<TRIPOS>BOND
     1    15    16    1
     2    16    17   ar
     3    17    18   ar
     4    18    19   ar
     5     9    19    1
     6     9    10    1
     7    10    11    1
     8    11    12    1
     9    12     5    1
    10     5     6    1
    11     6     7    1
    12     7     1    1
    13     1     2   am
    14     2     3    2
    15     2    21    1
    16    21    22    1
    17    22    24    1
    18    24    25   ar
    19    25    26   ar
    20    26    27    1
    21    26    28   ar
    22    28    29   ar
    23    29    30   ar
    24    30    31   ar
    25    31    34    1
    26    34    35    1
    27    34    36    1
    28    34    37    1
    29    31    32   ar
    30    32    33   ar
    31     7     8    1
    32    12    13    1
    33    13    14    1
    34    19    20   ar
    35    20    16   ar
    36    14     9    1
    37     8     5    1
    38    33    24   ar
    39    33    28   ar
    40     1     4    1
    41    22    23    1
@<TRIPOS>MOLECULE
*****
 37 41 0 0 0
SMALL
GASTEIGER

@<TRIPOS>ATOM
      1 N         142.9925  137.6201  158.7313 N.am    1  UNL1       -0.3018
      2 C         142.8352  138.6082  157.6138 C.2     1  UNL1        0.2425
      3 O         142.6379  140.0630  157.9210 O.2     1  UNL1       -0.2733
      4 H         143.1220  136.6653  158.5296 H       1  UNL1        0.1495
      5 N         142.8960  138.7473  162.1714 N.3     1  UNL1       -0.2711
      6 C         143.9074  138.0478  161.3125 C.3     1  UNL1        0.0933
      7 C         142.9525  138.0870  160.1563 C.3     1  UNL1        0.1035
      8 C         141.9412  138.7865  161.0153 C.3     1  UNL1        0.0933
      9 C         142.7761  140.1480  166.4462 C.3     1  UNL1        0.0421
     10 C         143.3441  141.0382  165.3809 C.3     1  UNL1        0.0074
     11 C         143.3841  140.5713  163.9560 C.3     1  UNL1        0.0163
     12 C         142.8561  139.2142  163.5964 C.3     1  UNL1        0.0576
     13 C         142.2880  138.3240  164.6617 C.3     1  UNL1        0.0163
     14 C         142.2480  138.7909  166.0866 C.3     1  UNL1        0.0074
     15 C         142.9086  143.2437  170.7217 C.3     1  UNL1        0.1537
     16 N         142.7971  142.0379  169.8364 N.ar    1  UNL1       -0.2477
     17 C         142.5524  140.6296  170.2912 C.ar    1  UNL1        0.0964
     18 C         142.5147  139.7502  169.0766 C.ar    1  UNL1        0.0366
     19 C         142.7361  140.6150  167.8711 C.ar    1  UNL1        0.0797
     20 N         142.9107  142.0289  168.3407 N.ar    1  UNL1       -0.1736
     21 C         142.8752  138.1413  156.1888 C.3     1  UNL1        0.1747
     22 N         143.7031  136.9480  155.8135 N.pl3   1  UNL1       -0.3093
     23 H         144.6340  136.8767  156.1261 H       1  UNL1        0.1487
     24 C         143.1128  135.8634  154.9619 C.ar    1  UNL1        0.1500
     25 N         142.2937  136.0639  153.7214 N.ar    1  UNL1       -0.1544
     26 N         141.9127  134.7123  153.1942 N.ar    1  UNL1       -0.2476
     27 C         141.0920  134.4436  151.9676 C.3     1  UNL1        0.1537
     28 C         142.4963  133.6765  154.1088 C.ar    1  UNL1        0.0807
     29 C         142.4481  132.1775  154.0880 C.ar    1  UNL1        0.0188
     30 C         143.1417  131.3899  155.1596 C.ar    1  UNL1        0.0054
     31 C         143.8834  132.1013  156.2522 C.ar    1  UNL1        0.0716
     32 C         143.9316  133.6004  156.2730 C.ar    1  UNL1        0.0082
     33 C         143.2380  134.3880  155.2013 C.ar    1  UNL1        0.0503
     34 C         144.5770  131.3136  157.3239 C.3     1  UNL1        0.4186
     35 F         145.2706  130.5260  158.3956 F       1  UNL1       -0.1659
     36 F         143.3224  130.5250  157.5563 F       1  UNL1       -0.1659
     37 F         145.8316  132.1022  157.0915 F       1  UNL1       -0.1659
@<TRIPOS>BOND
     1    15    16    1
     2    16    17   ar
     3    17    18   ar
     4    18    19   ar
     5     9    19    1
     6     9    10    1
     7    10    11    1
     8    11    12    1
     9    12     5    1
    10     5     6    1
    11     6     7    1
    12     7     1    1
    13     1     2   am
    14     2     3    2
    15     2    21    1
    16    21    22    1
    17    22    24    1
    18    24    25   ar
    19    25    26   ar
    20    26    27    1
    21    26    28   ar
    22    28    29   ar
    23    29    30   ar
    24    30    31   ar
    25    31    34    1
    26    34    35    1
    27    34    36    1
    28    34    37    1
    29    31    32   ar
    30    32    33   ar
    31     7     8    1
    32    12    13    1
    33    13    14    1
    34    19    20   ar
    35    20    16   ar
    36    14     9    1
    37     8     5    1
    38    33    24   ar
    39    33    28   ar
    40     1     4    1
    41    22    23    1
@<TRIPOS>MOLECULE
*****
 37 41 0 0 0
SMALL
GASTEIGER

@<TRIPOS>ATOM
      1 N         141.6310  138.3363  158.4125 N.am    1  UNL1       -0.3018
      2 C         142.9198  138.7517  157.7674 C.2     1  UNL1        0.2425
      3 O         143.9356  139.5275  158.5524 O.2     1  UNL1       -0.2733
      4 H         140.9643  137.8271  157.8973 H       1  UNL1        0.1495
      5 N         140.9719  139.2064  161.8655 N.3     1  UNL1       -0.2711
      6 C         141.8815  138.2366  161.1711 C.3     1  UNL1        0.0933
      7 C         141.3580  138.6967  159.8428 C.3     1  UNL1        0.1035
      8 C         140.4485  139.6665  160.5372 C.3     1  UNL1        0.0933
      9 C         140.1529  140.2876  166.1562 C.3     1  UNL1        0.0421
     10 C         141.0647  141.1435  165.3279 C.3     1  UNL1        0.0074
     11 C         141.3377  140.7831  163.8977 C.3     1  UNL1        0.0163
     12 C         140.6989  139.5668  163.2957 C.3     1  UNL1        0.0576
     13 C         139.7870  138.7109  164.1239 C.3     1  UNL1        0.0163
     14 C         139.5140  139.0713  165.5542 C.3     1  UNL1        0.0074
     15 C         140.0241  142.9102  170.7372 C.3     1  UNL1        0.1537
     16 N         139.8208  141.8536  169.6921 N.ar    1  UNL1       -0.2477
     17 C         139.0992  140.5524  169.8825 C.ar    1  UNL1        0.0964
     18 C         139.1357  139.8074  168.5811 C.ar    1  UNL1        0.0366
     19 C         139.8799  140.6481  167.5863 C.ar    1  UNL1        0.0797
     20 N         140.3033  141.9128  168.2730 N.ar    1  UNL1       -0.1736
     21 C         143.1928  138.3913  156.3371 C.3     1  UNL1        0.1747
     22 N         143.9594  137.1437  156.0112 N.pl3   1  UNL1       -0.3093
     23 H         144.8724  137.0220  156.3589 H       1  UNL1        0.1487
     24 C         143.3348  136.0817  155.1556 C.ar    1  UNL1        0.1500
     25 N         142.5073  136.3136  153.9262 N.ar    1  UNL1       -0.1544
     26 N         142.0892  134.9766  153.3900 N.ar    1  UNL1       -0.2476
     27 C         141.2494  134.7393  152.1700 C.3     1  UNL1        0.1537
     28 C         142.6584  133.9184  154.2880 C.ar    1  UNL1        0.0807
     29 C         142.5751  132.4211  154.2530 C.ar    1  UNL1        0.0188
     30 C         143.2617  131.6069  155.3092 C.ar    1  UNL1        0.0054
     31 C         144.0316  132.2900  156.4004 C.ar    1  UNL1        0.0716
     32 C         144.1148  133.7872  156.4354 C.ar    1  UNL1        0.0082
     33 C         143.4283  134.6014  155.3792 C.ar    1  UNL1        0.0503
     34 C         144.7182  131.4757  157.4566 C.3     1  UNL1        0.4186
     35 F         145.4048  130.6614  158.5128 F       1  UNL1       -0.1659
     36 F         144.8960  132.7089  158.2918 F       1  UNL1       -0.1659
     37 F         144.5404  130.2425  156.6215 F       1  UNL1       -0.1659
@<TRIPOS>BOND
     1    15    16    1
     2    16    17   ar
     3    17    18   ar
     4    18    19   ar
     5     9    19    1
     6     9    10    1
     7    10    11    1
     8    11    12    1
     9    12     5    1
    10     5     6    1
    11     6     7    1
    12     7     1    1
    13     1     2   am
    14     2     3    2
    15     2    21    1
    16    21    22    1
    17    22    24    1
    18    24    25   ar
    19    25    26   ar
    20    26    27    1
    21    26    28   ar
    22    28    29   ar
    23    29    30   ar
    24    30    31   ar
    25    31    34    1
    26    34    35    1
    27    34    36    1
    28    34    37    1
    29    31    32   ar
    30    32    33   ar
    31     7     8    1
    32    12    13    1
    33    13    14    1
    34    19    20   ar
    35    20    16   ar
    36    14     9    1
    37     8     5    1
    38    33    24   ar
    39    33    28   ar
    40     1     4    1
    41    22    23    1
@<TRIPOS>MOLECULE
*****
 37 41 0 0 0
SMALL
GASTEIGER

@<TRIPOS>ATOM
      1 N         140.7576  142.6588  157.2823 N.am    1  UNL1       -0.3018
      2 C         141.7836  143.5088  157.9714 C.2     1  UNL1        0.2425
      3 O         143.0736  142.8996  158.4349 O.2     1  UNL1       -0.2733
      4 H         139.9110  143.0587  156.9781 H       1  UNL1        0.1495
      5 N         141.3953  139.1360  156.7373 N.3     1  UNL1       -0.2711
      6 C         141.8599  140.4096  156.0955 C.3     1  UNL1        0.0933
      7 C         141.0217  141.1996  157.0566 C.3     1  UNL1        0.1035
      8 C         140.5572  139.9259  157.6983 C.3     1  UNL1        0.0933
      9 C         142.1875  134.7583  156.0602 C.3     1  UNL1        0.0421
     10 C         143.0367  135.5341  157.0231 C.3     1  UNL1        0.0074
     11 C         142.7726  136.9932  157.2488 C.3     1  UNL1        0.0163
     12 C         141.6593  137.6768  156.5116 C.3     1  UNL1        0.0576
     13 C         140.8102  136.9010  155.5487 C.3     1  UNL1        0.0163
     14 C         141.0743  135.4418  155.3230 C.3     1  UNL1        0.0074
     15 C         143.1240  129.6331  156.9182 C.3     1  UNL1        0.1537
     16 N         142.8821  130.9433  156.2290 N.ar    1  UNL1       -0.2477
     17 C         142.8343  131.1638  154.7460 C.ar    1  UNL1        0.0964
     18 C         142.5683  132.6198  154.5023 C.ar    1  UNL1        0.0366
     19 C         142.4517  133.2991  155.8346 C.ar    1  UNL1        0.0797
     20 N         142.6457  132.2629  156.9017 N.ar    1  UNL1       -0.1736
     21 C         141.5195  144.9680  158.1972 C.3     1  UNL1        0.1747
     22 N         141.7714  145.5761  159.5451 N.pl3   1  UNL1       -0.3093
     23 H         142.3923  146.3349  159.6346 H       1  UNL1        0.1487
     24 C         141.0774  145.0280  160.7567 C.ar    1  UNL1        0.1500
     25 N         139.6280  145.2073  161.0992 N.ar    1  UNL1       -0.1544
     26 N         139.3658  144.4945  162.3926 N.ar    1  UNL1       -0.2476
     27 C         138.0477  144.4154  163.1043 C.3     1  UNL1        0.1537
     28 C         140.6531  143.8747  162.8496 C.ar    1  UNL1        0.0807
     29 C         140.9986  143.0526  164.0558 C.ar    1  UNL1        0.0188
     30 C         142.4020  142.5603  164.2508 C.ar    1  UNL1        0.0054
     31 C         143.4599  142.8901  163.2397 C.ar    1  UNL1        0.0716
     32 C         143.1143  143.7121  162.0336 C.ar    1  UNL1        0.0082
     33 C         141.7109  144.2044  161.8385 C.ar    1  UNL1        0.0503
     34 C         144.8633  142.3977  163.4348 C.3     1  UNL1        0.4186
     35 F         146.2667  141.9054  163.6299 F       1  UNL1       -0.1659
     36 F         144.8227  141.7467  162.0841 F       1  UNL1       -0.1659
     37 F         144.9039  143.0488  164.7855 F       1  UNL1       -0.1659
@<TRIPOS>BOND
     1    15    16    1
     2    16    17   ar
     3    17    18   ar
     4    18    19   ar
     5     9    19    1
     6     9    10    1
     7    10    11    1
     8    11    12    1
     9    12     5    1
    10     5     6    1
    11     6     7    1
    12     7     1    1
    13     1     2   am
    14     2     3    2
    15     2    21    1
    16    21    22    1
    17    22    24    1
    18    24    25   ar
    19    25    26   ar
    20    26    27    1
    21    26    28   ar
    22    28    29   ar
    23    29    30   ar
    24    30    31   ar
    25    31    34    1
    26    34    35    1
    27    34    36    1
    28    34    37    1
    29    31    32   ar
    30    32    33   ar
    31     7     8    1
    32    12    13    1
    33    13    14    1
    34    19    20   ar
    35    20    16   ar
    36    14     9    1
    37     8     5    1
    38    33    24   ar
    39    33    28   ar
    40     1     4    1
    41    22    23    1
@<TRIPOS>MOLECULE
*****
 37 41 0 0 0
SMALL
GASTEIGER

@<TRIPOS>ATOM
      1 N         144.2629  140.9872  164.3976 N.am    1  UNL1       -0.3018
      2 C         144.5589  139.5218  164.2758 C.2     1  UNL1        0.2425
      3 O         144.3449  138.8195  162.9678 O.2     1  UNL1       -0.2733
      4 H         144.4034  141.4481  165.2561 H       1  UNL1        0.1495
      5 N         143.0315  142.8297  161.5335 N.3     1  UNL1       -0.2711
      6 C         144.3325  142.7718  162.2779 C.3     1  UNL1        0.0933
      7 C         143.7528  141.7504  163.2112 C.3     1  UNL1        0.1035
      8 C         142.4519  141.8084  162.4668 C.3     1  UNL1        0.0933
      9 C         141.5012  145.1192  157.9745 C.3     1  UNL1        0.0421
     10 C         141.0111  145.4575  159.3513 C.3     1  UNL1        0.0074
     11 C         141.5212  144.6944  160.5375 C.3     1  UNL1        0.0163
     12 C         142.5214  143.5929  160.3472 C.3     1  UNL1        0.0576
     13 C         143.0115  143.2545  158.9704 C.3     1  UNL1        0.0163
     14 C         142.5014  144.0177  157.7841 C.3     1  UNL1        0.0074
     15 C         138.8483  148.5709  154.9864 C.3     1  UNL1        0.1537
     16 N         139.7716  147.4690  155.4148 N.ar    1  UNL1       -0.2477
     17 C         140.6401  146.6450  154.5110 C.ar    1  UNL1        0.0964
     18 C         141.3937  145.6645  155.3598 C.ar    1  UNL1        0.0366
     19 C         140.9910  145.8824  156.7883 C.ar    1  UNL1        0.0797
     20 N         139.9885  146.9977  156.8222 N.ar    1  UNL1       -0.1736
     21 C         145.0690  138.7587  165.4621 C.3     1  UNL1        0.1747
     22 N         144.1031  138.1027  166.4039 N.pl3   1  UNL1       -0.3093
     23 H         144.2244  137.1585  166.6548 H       1  UNL1        0.1487
     24 C         142.9522  138.8854  166.9632 C.ar    1  UNL1        0.1500
     25 N         142.9607  139.6771  168.2372 N.ar    1  UNL1       -0.1544
     26 N         141.6045  140.2948  168.4081 N.ar    1  UNL1       -0.2476
     27 C         141.1710  141.1690  169.5473 C.3     1  UNL1        0.1537
     28 C         140.7578  139.8849  167.2397 C.ar    1  UNL1        0.0807
     29 C         139.3361  140.1923  166.8735 C.ar    1  UNL1        0.0188
     30 C         138.7473  139.6286  165.6144 C.ar    1  UNL1        0.0054
     31 C         139.5802  138.7575  164.7214 C.ar    1  UNL1        0.0716
     32 C         141.0020  138.4501  165.0875 C.ar    1  UNL1        0.0082
     33 C         141.5908  139.0138  166.3467 C.ar    1  UNL1        0.0503
     34 C         138.9913  138.1938  163.4622 C.3     1  UNL1        0.4186
     35 F         138.4025  137.6300  162.2030 F       1  UNL1       -0.1659
     36 F         137.9793  139.3006  163.4399 F       1  UNL1       -0.1659
     37 F         140.0034  137.0869  163.4845 F       1  UNL1       -0.1659
@<TRIPOS>BOND
     1    15    16    1
     2    16    17   ar
     3    17    18   ar
     4    18    19   ar
     5     9    19    1
     6     9    10    1
     7    10    11    1
     8    11    12    1
     9    12     5    1
    10     5     6    1
    11     6     7    1
    12     7     1    1
    13     1     2   am
    14     2     3    2
    15     2    21    1
    16    21    22    1
    17    22    24    1
    18    24    25   ar
    19    25    26   ar
    20    26    27    1
    21    26    28   ar
    22    28    29   ar
    23    29    30   ar
    24    30    31   ar
    25    31    34    1
    26    34    35    1
    27    34    36    1
    28    34    37    1
    29    31    32   ar
    30    32    33   ar
    31     7     8    1
    32    12    13    1
    33    13    14    1
    34    19    20   ar
    35    20    16   ar
    36    14     9    1
    37     8     5    1
    38    33    24   ar
    39    33    28   ar
    40     1     4    1
    41    22    23    1
@<TRIPOS>MOLECULE
*****
 37 41 0 0 0
SMALL
GASTEIGER

@<TRIPOS>ATOM
      1 N         143.2326  140.0209  157.1817 N.am    1  UNL1       -0.3018
      2 C         143.7699  140.5103  158.4938 C.2     1  UNL1        0.2425
      3 O         144.1195  139.5298  159.5738 O.2     1  UNL1       -0.2733
      4 H         143.0032  140.6645  156.4728 H       1  UNL1        0.1495
      5 N         142.7794  136.4720  156.6213 N.3     1  UNL1       -0.2711
      6 C         142.2692  137.4605  157.6275 C.3     1  UNL1        0.0933
      7 C         143.0449  138.5509  156.9495 C.3     1  UNL1        0.1035
      8 C         143.5551  137.5623  155.9434 C.3     1  UNL1        0.0933
      9 C         142.2164  132.0620  155.9249 C.3     1  UNL1        0.0421
     10 C         143.2425  132.5410  156.9087 C.3     1  UNL1        0.0074
     11 C         143.4301  134.0109  157.1408 C.3     1  UNL1        0.0163
     12 C         142.5918  135.0020  156.3892 C.3     1  UNL1        0.0576
     13 C         141.5657  134.5230  155.4054 C.3     1  UNL1        0.0163
     14 C         141.3780  133.0530  155.1733 C.3     1  UNL1        0.0074
     15 C         142.9595  126.8346  155.9786 C.3     1  UNL1        0.1537
     16 N         142.3704  128.1892  155.7175 N.ar    1  UNL1       -0.2477
     17 C         141.1102  128.4704  154.9542 C.ar    1  UNL1        0.0964
     18 C         140.8990  129.9554  154.9389 C.ar    1  UNL1        0.0366
     19 C         142.0288  130.5920  155.6929 C.ar    1  UNL1        0.0797
     20 N         142.9382  129.5004  156.1741 N.ar    1  UNL1       -0.1736
     21 C         143.9576  141.9803  158.7259 C.3     1  UNL1        0.1747
     22 N         144.5067  142.4690  160.0335 N.pl3   1  UNL1       -0.3093
     23 H         145.4776  142.4540  160.1961 H       1  UNL1        0.1487
     24 C         143.5766  142.9807  161.0933 C.ar    1  UNL1        0.1500
     25 N         142.7124  144.2026  160.9929 N.ar    1  UNL1       -0.1544
     26 N         141.9491  144.3373  162.2771 N.ar    1  UNL1       -0.2476
     27 C         140.9660  145.4205  162.6090 C.3     1  UNL1        0.1537
     28 C         142.3416  143.1986  163.1712 C.ar    1  UNL1        0.0807
     29 C         141.9130  142.8170  164.5570 C.ar    1  UNL1        0.0188
     30 C         142.4902  141.5968  165.2112 C.ar    1  UNL1        0.0054
     31 C         143.4960  140.7584  164.4796 C.ar    1  UNL1        0.0716
     32 C         143.9247  141.1401  163.0938 C.ar    1  UNL1        0.0082
     33 C         143.3474  142.3602  162.4396 C.ar    1  UNL1        0.0503
     34 C         144.0733  139.5382  165.1339 C.3     1  UNL1        0.4186
     35 F         144.6505  138.3181  165.7881 F       1  UNL1       -0.1659
     36 F         142.8047  139.3559  165.9132 F       1  UNL1       -0.1659
     37 F         145.3419  139.7205  164.3545 F       1  UNL1       -0.1659
@<TRIPOS>BOND
     1    15    16    1
     2    16    17   ar
     3    17    18   ar
     4    18    19   ar
     5     9    19    1
     6     9    10    1
     7    10    11    1
     8    11    12    1
     9    12     5    1
    10     5     6    1
    11     6     7    1
    12     7     1    1
    13     1     2   am
    14     2     3    2
    15     2    21    1
    16    21    22    1
    17    22    24    1
    18    24    25   ar
    19    25    26   ar
    20    26    27    1
    21    26    28   ar
    22    28    29   ar
    23    29    30   ar
    24    30    31   ar
    25    31    34    1
    26    34    35    1
    27    34    36    1
    28    34    37    1
    29    31    32   ar
    30    32    33   ar
    31     7     8    1
    32    12    13    1
    33    13    14    1
    34    19    20   ar
    35    20    16   ar
    36    14     9    1
    37     8     5    1
    38    33    24   ar
    39    33    28   ar
    40     1     4    1
    41    22    23    1
@<TRIPOS>MOLECULE
*****
 37 41 0 0 0
SMALL
GASTEIGER

@<TRIPOS>ATOM
      1 N         140.7375  139.2633  157.3588 N.am    1  UNL1       -0.3018
      2 C         139.8424  139.3981  158.5548 C.2     1  UNL1        0.2425
      3 O         139.5048  138.1911  159.3788 O.2     1  UNL1       -0.2733
      4 H         140.9591  140.0555  156.8179 H       1  UNL1        0.1495
      5 N         142.0836  136.0236  156.4608 N.3     1  UNL1       -0.2711
      6 C         142.5421  137.1598  157.3261 C.3     1  UNL1        0.0933
      7 C         141.2950  137.9214  156.9868 C.3     1  UNL1        0.1035
      8 C         140.8366  136.7851  156.1215 C.3     1  UNL1        0.0933
      9 C         143.7561  131.9977  155.3448 C.3     1  UNL1        0.0421
     10 C         142.8649  132.7315  154.3869 C.3     1  UNL1        0.0074
     11 C         142.3075  134.0733  154.7589 C.3     1  UNL1        0.0163
     12 C         142.6411  134.6816  156.0888 C.3     1  UNL1        0.0576
     13 C         143.5322  133.9479  157.0467 C.3     1  UNL1        0.0163
     14 C         144.0897  132.6060  156.6747 C.3     1  UNL1        0.0074
     15 C         145.4047  127.8528  152.5195 C.3     1  UNL1        0.1537
     16 N         145.0713  128.7506  153.6740 N.ar    1  UNL1       -0.2477
     17 C         145.2713  128.4310  155.1259 C.ar    1  UNL1        0.0964
     18 C         144.8030  129.6084  155.9285 C.ar    1  UNL1        0.0366
     19 C         144.3135  130.6558  154.9727 C.ar    1  UNL1        0.0797
     20 N         144.4793  130.1256  153.5793 N.ar    1  UNL1       -0.1736
     21 C         139.2849  140.7401  158.9268 C.3     1  UNL1        0.1747
     22 N         138.1800  140.8395  159.9365 N.pl3   1  UNL1       -0.3093
     23 H         137.3480  140.3293  159.8077 H       1  UNL1        0.1487
     24 C         138.3429  141.7165  161.1426 C.ar    1  UNL1        0.1500
     25 N         138.4373  143.2135  161.1379 N.ar    1  UNL1       -0.1544
     26 N         138.5927  143.6725  162.5575 N.ar    1  UNL1       -0.2476
     27 C         138.7235  145.0950  163.0148 C.3     1  UNL1        0.1537
     28 C         138.5945  142.4591  163.4395 C.ar    1  UNL1        0.0807
     29 C         138.7167  142.2989  164.9258 C.ar    1  UNL1        0.0188
     30 C         138.6845  140.9298  165.5377 C.ar    1  UNL1        0.0054
     31 C         138.5301  139.7209  164.6632 C.ar    1  UNL1        0.0716
     32 C         138.4079  139.8811  163.1769 C.ar    1  UNL1        0.0082
     33 C         138.4401  141.2502  162.5650 C.ar    1  UNL1        0.0503
     34 C         138.4979  138.3518  165.2752 C.3     1  UNL1        0.4186
     35 F         138.4657  136.9827  165.8872 F       1  UNL1       -0.1659
     36 F         138.5967  137.7390  163.9097 F       1  UNL1       -0.1659
     37 F         138.3991  138.9645  166.6408 F       1  UNL1       -0.1659
@<TRIPOS>BOND
     1    15    16    1
     2    16    17   ar
     3    17    18   ar
     4    18    19   ar
     5     9    19    1
     6     9    10    1
     7    10    11    1
     8    11    12    1
     9    12     5    1
    10     5     6    1
    11     6     7    1
    12     7     1    1
    13     1     2   am
    14     2     3    2
    15     2    21    1
    16    21    22    1
    17    22    24    1
    18    24    25   ar
    19    25    26   ar
    20    26    27    1
    21    26    28   ar
    22    28    29   ar
    23    29    30   ar
    24    30    31   ar
    25    31    34    1
    26    34    35    1
    27    34    36    1
    28    34    37    1
    29    31    32   ar
    30    32    33   ar
    31     7     8    1
    32    12    13    1
    33    13    14    1
    34    19    20   ar
    35    20    16   ar
    36    14     9    1
    37     8     5    1
    38    33    24   ar
    39    33    28   ar
    40     1     4    1
    41    22    23    1
@<TRIPOS>MOLECULE
*****
 37 41 0 0 0
SMALL
GASTEIGER

@<TRIPOS>ATOM
      1 N         140.4647  140.0377  158.0588 N.am    1  UNL1       -0.3018
      2 C         139.5627  140.0608  159.2570 C.2     1  UNL1        0.2425
      3 O         139.1578  138.7755  159.9159 O.2     1  UNL1       -0.2733
      4 H         140.7304  140.8813  157.6263 H       1  UNL1        0.1495
      5 N         141.6651  136.8789  156.7567 N.3     1  UNL1       -0.2711
      6 C         142.3139  138.1397  157.2460 C.3     1  UNL1        0.0933
      7 C         140.9619  138.7293  157.5194 C.3     1  UNL1        0.1035
      8 C         140.3132  137.4685  157.0301 C.3     1  UNL1        0.0933
      9 C         143.1566  132.9537  155.1387 C.3     1  UNL1        0.0421
     10 C         143.4569  133.3437  156.5557 C.3     1  UNL1        0.0074
     11 C         142.9598  134.6520  157.0950 C.3     1  UNL1        0.0163
     12 C         142.1623  135.5705  156.2173 C.3     1  UNL1        0.0576
     13 C         141.8619  135.1807  154.8004 C.3     1  UNL1        0.0163
     14 C         142.3591  133.8723  154.2610 C.3     1  UNL1        0.0074
     15 C         145.5101  128.2410  154.7751 C.3     1  UNL1        0.1537
     16 N         144.7356  129.4791  154.4323 N.ar    1  UNL1       -0.2477
     17 C         144.1025  129.7845  153.1072 C.ar    1  UNL1        0.0964
     18 C         143.4339  131.1232  153.2105 C.ar    1  UNL1        0.0366
     19 C         143.6538  131.6453  154.5994 C.ar    1  UNL1        0.0797
     20 N         144.4584  130.6291  155.3546 N.ar    1  UNL1       -0.1736
     21 C         139.0655  141.3692  159.7963 C.3     1  UNL1        0.1747
     22 N         138.2343  141.3986  161.0447 N.pl3   1  UNL1       -0.3093
     23 H         137.3136  141.0502  161.0315 H       1  UNL1        0.1487
     24 C         138.8061  141.9588  162.3133 C.ar    1  UNL1        0.1500
     25 N         139.3979  143.3263  162.4853 N.ar    1  UNL1       -0.1544
     26 N         139.8439  143.4624  163.9109 N.ar    1  UNL1       -0.2476
     27 C         140.4923  144.6699  164.5204 C.3     1  UNL1        0.1537
     28 C         139.5277  142.1790  164.6201 C.ar    1  UNL1        0.0807
     29 C         139.7409  141.7366  166.0374 C.ar    1  UNL1        0.0188
     30 C         139.3128  140.3648  166.4673 C.ar    1  UNL1        0.0054
     31 C         138.6713  139.4355  165.4799 C.ar    1  UNL1        0.0716
     32 C         138.4580  139.8779  164.0626 C.ar    1  UNL1        0.0082
     33 C         138.8862  141.2497  163.6328 C.ar    1  UNL1        0.0503
     34 C         138.2431  138.0636  165.9099 C.3     1  UNL1        0.4186
     35 F         137.8149  136.6919  166.3399 F       1  UNL1       -0.1659
     36 F         138.9484  137.4722  164.7255 F       1  UNL1       -0.1659
     37 F         137.5378  138.6551  167.0942 F       1  UNL1       -0.1659
@<TRIPOS>BOND
     1    15    16    1
     2    16    17   ar
     3    17    18   ar
     4    18    19   ar
     5     9    19    1
     6     9    10    1
     7    10    11    1
     8    11    12    1
     9    12     5    1
    10     5     6    1
    11     6     7    1
    12     7     1    1
    13     1     2   am
    14     2     3    2
    15     2    21    1
    16    21    22    1
    17    22    24    1
    18    24    25   ar
    19    25    26   ar
    20    26    27    1
    21    26    28   ar
    22    28    29   ar
    23    29    30   ar
    24    30    31   ar
    25    31    34    1
    26    34    35    1
    27    34    36    1
    28    34    37    1
    29    31    32   ar
    30    32    33   ar
    31     7     8    1
    32    12    13    1
    33    13    14    1
    34    19    20   ar
    35    20    16   ar
    36    14     9    1
    37     8     5    1
    38    33    24   ar
    39    33    28   ar
    40     1     4    1
    41    22    23    1
