@<TRIPOS>MOLECULE
*****
 30 34 0 0 0
SMALL
GASTEIGER

@<TRIPOS>ATOM
      1 C         139.9207  139.9827  167.3741 C.ar    1  UNL1        0.0041
      2 C         138.5741  139.3999  167.6853 C.ar    1  UNL1        0.0002
      3 C         137.8884  138.5191  166.6833 C.ar    1  UNL1        0.0015
      4 C         138.5494  138.2212  165.3701 C.ar    1  UNL1        0.0192
      5 C         139.8960  138.8040  165.0590 C.ar    1  UNL1        0.0856
      6 N         140.5570  138.5061  163.7458 N.ar    1  UNL1       -0.2260
      7 C         141.9036  139.0890  163.4347 C.ar    1  UNL1        0.1712
      8 N         142.5893  139.9698  164.4367 N.ar    1  UNL1       -0.2115
      9 C         141.9284  140.2677  165.7499 C.ar    1  UNL1        0.1318
     10 C         140.5817  139.6848  166.0610 C.ar    1  UNL1        0.0491
     11 C         141.9779  142.6251  170.3802 C.ar    1  UNL1        0.0000
     12 C         142.2363  141.1476  170.3794 C.ar    1  UNL1        0.0000
     13 C         141.5506  140.2668  169.3774 C.ar    1  UNL1        0.0000
     14 C         140.6064  140.8635  168.3762 C.ar    1  UNL1        0.0001
     15 C         140.3480  142.3411  168.3770 C.ar    1  UNL1        0.0000
     16 C         141.0337  143.2219  169.3789 C.ar    1  UNL1        0.0000
     17 C         142.5645  138.7910  162.1215 C.ar    1  UNL1        0.0858
     18 C         143.9260  139.2541  161.6946 C.ar    1  UNL1        0.1090
     19 N         144.1829  138.7270  160.3139 N.ar    1  UNL1       -0.2346
     20 C         142.9804  137.9382  159.8876 C.ar    1  UNL1        0.1346
     21 S         141.9802  137.9778  161.0047 S.2     1  UNL1       -0.0614
     22 N         142.6140  141.1484  166.7519 N.pl3   1  UNL1       -0.3131
     23 H         142.4839  140.9922  167.7151 H       1  UNL1        0.1485
     24 C         143.4980  142.2674  166.2863 C.3     1  UNL1        0.1348
     25 C         142.9786  143.2740  165.3029 C.ar    1  UNL1        0.0788
     26 C         143.9375  144.0894  164.4871 C.ar    1  UNL1        0.0165
     27 C         143.4181  145.0960  163.5038 C.ar    1  UNL1        0.0029
     28 C         141.9398  145.2872  163.3362 C.ar    1  UNL1        0.0207
     29 C         140.9809  144.4718  164.1521 C.ar    1  UNL1        0.0985
     30 N         141.5003  143.4652  165.1354 N.ar    1  UNL1       -0.2464
@<TRIPOS>BOND
     1    11    12   ar
     2    12    13   ar
     3    13    14   ar
     4    14     1    1
     5     1     2   ar
     6     2     3   ar
     7     3     4   ar
     8     4     5   ar
     9     5     6   ar
    10     6     7   ar
    11     7    17    1
    12    17    18   ar
    13    18    19   ar
    14    19    20   ar
    15    20    21   ar
    16     7     8   ar
    17     8     9   ar
    18     9    22    1
    19    22    24    1
    20    24    25    1
    21    25    26   ar
    22    26    27   ar
    23    27    28   ar
    24    28    29   ar
    25    29    30   ar
    26     9    10   ar
    27    14    15   ar
    28    15    16   ar
    29    16    11   ar
    30    10     1   ar
    31    10     5   ar
    32    21    17   ar
    33    30    25   ar
    34    22    23    1
@<TRIPOS>MOLECULE
*****
 30 34 0 0 0
SMALL
GASTEIGER

@<TRIPOS>ATOM
      1 C         138.9807  140.3295  164.6491 C.ar    1  UNL1        0.0041
      2 C         138.4775  139.3542  165.6717 C.ar    1  UNL1        0.0002
      3 C         138.5848  137.8797  165.4183 C.ar    1  UNL1        0.0015
      4 C         139.1952  137.3805  164.1423 C.ar    1  UNL1        0.0192
      5 C         139.6984  138.3557  163.1198 C.ar    1  UNL1        0.0856
      6 N         140.3088  137.8564  161.8438 N.ar    1  UNL1       -0.2260
      7 C         140.8120  138.8317  160.8212 C.ar    1  UNL1        0.1712
      8 N         140.7047  140.3063  161.0746 N.ar    1  UNL1       -0.2115
      9 C         140.0943  140.8055  162.3506 C.ar    1  UNL1        0.1318
     10 C         139.5911  139.8302  163.3732 C.ar    1  UNL1        0.0491
     11 C         138.6589  144.7532  165.4092 C.ar    1  UNL1        0.0000
     12 C         139.8077  143.9758  165.9800 C.ar    1  UNL1        0.0000
     13 C         139.9149  142.5012  165.7266 C.ar    1  UNL1        0.0000
     14 C         138.8734  141.8041  164.9025 C.ar    1  UNL1        0.0001
     15 C         137.7246  142.5815  164.3317 C.ar    1  UNL1        0.0000
     16 C         137.6173  144.0560  164.5850 C.ar    1  UNL1        0.0000
     17 C         141.4224  138.3324  159.5452 C.ar    1  UNL1        0.0858
     18 C         142.7733  137.6957  159.4041 C.ar    1  UNL1        0.1090
     19 N         142.9749  137.3519  157.9580 N.ar    1  UNL1       -0.2346
     20 C         141.7487  137.7762  157.2054 C.ar    1  UNL1        0.1346
     21 S         140.7892  138.3821  158.1863 S.2     1  UNL1       -0.0614
     22 N         139.9870  142.2800  162.6040 N.pl3   1  UNL1       -0.3131
     23 H         139.1786  142.6492  163.0275 H       1  UNL1        0.1485
     24 C         141.1115  143.1922  162.2120 C.3     1  UNL1        0.1348
     25 C         142.2326  143.4564  163.1729 C.ar    1  UNL1        0.0788
     26 C         142.6072  144.8671  163.5187 C.ar    1  UNL1        0.0165
     27 C         143.7283  145.1313  164.4796 C.ar    1  UNL1        0.0029
     28 C         144.4748  143.9849  165.0947 C.ar    1  UNL1        0.0207
     29 C         144.1002  142.5741  164.7488 C.ar    1  UNL1        0.0985
     30 N         142.9791  142.3099  163.7880 N.ar    1  UNL1       -0.2464
@<TRIPOS>BOND
     1    11    12   ar
     2    12    13   ar
     3    13    14   ar
     4    14     1    1
     5     1     2   ar
     6     2     3   ar
     7     3     4   ar
     8     4     5   ar
     9     5     6   ar
    10     6     7   ar
    11     7    17    1
    12    17    18   ar
    13    18    19   ar
    14    19    20   ar
    15    20    21   ar
    16     7     8   ar
    17     8     9   ar
    18     9    22    1
    19    22    24    1
    20    24    25    1
    21    25    26   ar
    22    26    27   ar
    23    27    28   ar
    24    28    29   ar
    25    29    30   ar
    26     9    10   ar
    27    14    15   ar
    28    15    16   ar
    29    16    11   ar
    30    10     1   ar
    31    10     5   ar
    32    21    17   ar
    33    30    25   ar
    34    22    23    1
@<TRIPOS>MOLECULE
*****
 30 34 0 0 0
SMALL
GASTEIGER

@<TRIPOS>ATOM
      1 C         140.2428  143.8974  164.1951 C.ar    1  UNL1        0.0041
      2 C         139.2531  144.4716  165.1650 C.ar    1  UNL1        0.0002
      3 C         137.7963  144.5181  164.8107 C.ar    1  UNL1        0.0015
      4 C         137.3292  143.9903  163.4866 C.ar    1  UNL1        0.0192
      5 C         138.3189  143.4161  162.5167 C.ar    1  UNL1        0.0856
      6 N         137.8519  142.8884  161.1926 N.ar    1  UNL1       -0.2260
      7 C         138.8416  142.3141  160.2227 C.ar    1  UNL1        0.1712
      8 N         140.2984  142.2676  160.5770 N.ar    1  UNL1       -0.2115
      9 C         140.7655  142.7954  161.9011 C.ar    1  UNL1        0.1318
     10 C         139.7757  143.3696  162.8710 C.ar    1  UNL1        0.0491
     11 C         144.6134  143.7578  165.2578 C.ar    1  UNL1        0.0000
     12 C         144.1033  144.8097  164.3181 C.ar    1  UNL1        0.0000
     13 C         142.6464  144.8563  163.9638 C.ar    1  UNL1        0.0000
     14 C         141.6997  143.8508  164.5494 C.ar    1  UNL1        0.0001
     15 C         142.2098  142.7989  165.4891 C.ar    1  UNL1        0.0000
     16 C         143.6666  142.7523  165.8434 C.ar    1  UNL1        0.0000
     17 C         138.3745  141.7864  158.8986 C.ar    1  UNL1        0.0858
     18 C         138.0996  140.3489  158.5697 C.ar    1  UNL1        0.1090
     19 N         137.6555  140.2776  157.1387 N.ar    1  UNL1       -0.2346
     20 C         137.6559  141.6710  156.5832 C.ar    1  UNL1        0.1346
     21 S         138.1002  142.6034  157.6709 S.2     1  UNL1       -0.0614
     22 N         142.2223  142.7489  162.2554 N.pl3   1  UNL1       -0.3131
     23 H         142.6526  143.5299  162.6726 H       1  UNL1        0.1485
     24 C         143.0236  141.5124  161.9739 C.3     1  UNL1        0.1348
     25 C         143.3227  140.5446  163.0801 C.ar    1  UNL1        0.0788
     26 C         144.7422  140.2981  163.4975 C.ar    1  UNL1        0.0165
     27 C         145.0414  139.3303  164.6038 C.ar    1  UNL1        0.0029
     28 C         143.9211  138.6089  165.2926 C.ar    1  UNL1        0.0207
     29 C         142.5016  138.8554  164.8752 C.ar    1  UNL1        0.0985
     30 N         142.2024  139.8232  163.7689 N.ar    1  UNL1       -0.2464
@<TRIPOS>BOND
     1    11    12   ar
     2    12    13   ar
     3    13    14   ar
     4    14     1    1
     5     1     2   ar
     6     2     3   ar
     7     3     4   ar
     8     4     5   ar
     9     5     6   ar
    10     6     7   ar
    11     7    17    1
    12    17    18   ar
    13    18    19   ar
    14    19    20   ar
    15    20    21   ar
    16     7     8   ar
    17     8     9   ar
    18     9    22    1
    19    22    24    1
    20    24    25    1
    21    25    26   ar
    22    26    27   ar
    23    27    28   ar
    24    28    29   ar
    25    29    30   ar
    26     9    10   ar
    27    14    15   ar
    28    15    16   ar
    29    16    11   ar
    30    10     1   ar
    31    10     5   ar
    32    21    17   ar
    33    30    25   ar
    34    22    23    1
@<TRIPOS>MOLECULE
*****
 30 34 0 0 0
SMALL
GASTEIGER

@<TRIPOS>ATOM
      1 C         142.3008  139.0198  165.0631 C.ar    1  UNL1        0.0041
      2 C         143.3688  138.6032  166.0305 C.ar    1  UNL1        0.0002
      3 C         144.8145  138.7284  165.6511 C.ar    1  UNL1        0.0015
      4 C         145.1924  139.2702  164.3044 C.ar    1  UNL1        0.0192
      5 C         144.1244  139.6868  163.3370 C.ar    1  UNL1        0.0856
      6 N         144.5022  140.2286  161.9903 N.ar    1  UNL1       -0.2260
      7 C         143.4343  140.6452  161.0229 C.ar    1  UNL1        0.1712
      8 N         141.9884  140.5200  161.4022 N.ar    1  UNL1       -0.2115
      9 C         141.6106  139.9782  162.7490 C.ar    1  UNL1        0.1318
     10 C         142.6786  139.5616  163.7164 C.ar    1  UNL1        0.0491
     11 C         137.9632  138.6443  166.2011 C.ar    1  UNL1        0.0000
     12 C         138.6303  137.5527  165.4179 C.ar    1  UNL1        0.0000
     13 C         140.0762  137.6779  165.0386 C.ar    1  UNL1        0.0000
     14 C         140.8549  138.8946  165.4424 C.ar    1  UNL1        0.0001
     15 C         140.1878  139.9862  166.2256 C.ar    1  UNL1        0.0000
     16 C         138.7420  139.8610  166.6050 C.ar    1  UNL1        0.0000
     17 C         143.8121  141.1870  159.6762 C.ar    1  UNL1        0.0858
     18 C         144.2840  142.5813  159.3874 C.ar    1  UNL1        0.1090
     19 N         144.5479  142.6856  157.9145 N.ar    1  UNL1       -0.2346
     20 C         144.2392  141.3559  157.2929 C.ar    1  UNL1        0.1346
     21 S         143.7845  140.4297  158.3817 S.2     1  UNL1       -0.0614
     22 N         140.1648  139.8530  163.1283 N.pl3   1  UNL1       -0.3131
     23 H         139.8582  139.0764  163.6500 H       1  UNL1        0.1485
     24 C         139.1860  140.9111  162.7129 C.3     1  UNL1        0.1348
     25 C         139.1194  142.2077  163.4641 C.ar    1  UNL1        0.0788
     26 C         137.8137  142.6790  164.0323 C.ar    1  UNL1        0.0165
     27 C         137.7471  143.9757  164.7835 C.ar    1  UNL1        0.0029
     28 C         138.9862  144.8010  164.9665 C.ar    1  UNL1        0.0207
     29 C         140.2920  144.3296  164.3982 C.ar    1  UNL1        0.0985
     30 N         140.3585  143.0330  163.6470 N.ar    1  UNL1       -0.2464
@<TRIPOS>BOND
     1    11    12   ar
     2    12    13   ar
     3    13    14   ar
     4    14     1    1
     5     1     2   ar
     6     2     3   ar
     7     3     4   ar
     8     4     5   ar
     9     5     6   ar
    10     6     7   ar
    11     7    17    1
    12    17    18   ar
    13    18    19   ar
    14    19    20   ar
    15    20    21   ar
    16     7     8   ar
    17     8     9   ar
    18     9    22    1
    19    22    24    1
    20    24    25    1
    21    25    26   ar
    22    26    27   ar
    23    27    28   ar
    24    28    29   ar
    25    29    30   ar
    26     9    10   ar
    27    14    15   ar
    28    15    16   ar
    29    16    11   ar
    30    10     1   ar
    31    10     5   ar
    32    21    17   ar
    33    30    25   ar
    34    22    23    1
@<TRIPOS>MOLECULE
*****
 30 34 0 0 0
SMALL
GASTEIGER

@<TRIPOS>ATOM
      1 C         142.9850  141.7227  166.3344 C.ar    1  UNL1        0.0041
      2 C         143.7898  142.9602  166.6003 C.ar    1  UNL1        0.0002
      3 C         144.6163  143.5670  165.5055 C.ar    1  UNL1        0.0015
      4 C         144.6379  142.9363  164.1447 C.ar    1  UNL1        0.0192
      5 C         143.8331  141.6988  163.8788 C.ar    1  UNL1        0.0856
      6 N         143.8547  141.0681  162.5180 N.ar    1  UNL1       -0.2260
      7 C         143.0499  139.8305  162.2521 C.ar    1  UNL1        0.1712
      8 N         142.2234  139.2237  163.3469 N.ar    1  UNL1       -0.2115
      9 C         142.2018  139.8544  164.7077 C.ar    1  UNL1        0.1318
     10 C         143.0067  141.0920  164.9736 C.ar    1  UNL1        0.0491
     11 C         140.5056  139.9021  169.6190 C.ar    1  UNL1        0.0000
     12 C         141.8979  139.4044  169.3667 C.ar    1  UNL1        0.0000
     13 C         142.7244  140.0113  168.2718 C.ar    1  UNL1        0.0000
     14 C         142.1586  141.1158  167.4293 C.ar    1  UNL1        0.0001
     15 C         140.7662  141.6135  167.6816 C.ar    1  UNL1        0.0000
     16 C         139.9397  141.0067  168.7764 C.ar    1  UNL1        0.0000
     17 C         143.0715  139.1998  160.8913 C.ar    1  UNL1        0.0858
     18 C         143.6691  139.7974  159.6519 C.ar    1  UNL1        0.1090
     19 N         143.4662  138.8276  158.5256 N.ar    1  UNL1       -0.2346
     20 C         142.7434  137.6308  159.0688 C.ar    1  UNL1        0.1346
     21 S         142.4994  137.8609  160.5309 S.2     1  UNL1       -0.0614
     22 N         141.3754  139.2476  165.8026 N.pl3   1  UNL1       -0.3131
     23 H         141.7685  139.1027  166.6935 H       1  UNL1        0.1485
     24 C         139.9498  138.8614  165.5401 C.3     1  UNL1        0.1348
     25 C         139.0926  139.7151  164.6535 C.ar    1  UNL1        0.0788
     26 C         138.6733  141.0822  165.1065 C.ar    1  UNL1        0.0165
     27 C         137.8160  141.9360  164.2199 C.ar    1  UNL1        0.0029
     28 C         137.3781  141.4228  162.8802 C.ar    1  UNL1        0.0207
     29 C         137.7974  140.0557  162.4271 C.ar    1  UNL1        0.0985
     30 N         138.6547  139.2019  163.3138 N.ar    1  UNL1       -0.2464
@<TRIPOS>BOND
     1    11    12   ar
     2    12    13   ar
     3    13    14   ar
     4    14     1    1
     5     1     2   ar
     6     2     3   ar
     7     3     4   ar
     8     4     5   ar
     9     5     6   ar
    10     6     7   ar
    11     7    17    1
    12    17    18   ar
    13    18    19   ar
    14    19    20   ar
    15    20    21   ar
    16     7     8   ar
    17     8     9   ar
    18     9    22    1
    19    22    24    1
    20    24    25    1
    21    25    26   ar
    22    26    27   ar
    23    27    28   ar
    24    28    29   ar
    25    29    30   ar
    26     9    10   ar
    27    14    15   ar
    28    15    16   ar
    29    16    11   ar
    30    10     1   ar
    31    10     5   ar
    32    21    17   ar
    33    30    25   ar
    34    22    23    1
@<TRIPOS>MOLECULE
*****
 30 34 0 0 0
SMALL
GASTEIGER

@<TRIPOS>ATOM
      1 C         139.9142  140.7154  167.5888 C.ar    1  UNL1        0.0041
      2 C         139.0298  139.6326  168.1320 C.ar    1  UNL1        0.0002
      3 C         138.0428  138.9489  167.2329 C.ar    1  UNL1        0.0015
      4 C         137.9402  139.3482  165.7907 C.ar    1  UNL1        0.0192
      5 C         138.8246  140.4311  165.2475 C.ar    1  UNL1        0.0856
      6 N         138.7220  140.8303  163.8052 N.ar    1  UNL1       -0.2260
      7 C         139.6065  141.9132  163.2621 C.ar    1  UNL1        0.1712
      8 N         140.5936  142.5969  164.1612 N.ar    1  UNL1       -0.2115
      9 C         140.6962  142.1976  165.6034 C.ar    1  UNL1        0.1318
     10 C         139.8117  141.1147  166.1466 C.ar    1  UNL1        0.0491
     11 C         142.8755  142.7665  170.2860 C.ar    1  UNL1        0.0000
     12 C         141.5394  143.3956  170.0232 C.ar    1  UNL1        0.0000
     13 C         140.5523  142.7119  169.1241 C.ar    1  UNL1        0.0000
     14 C         140.9013  141.3991  168.4879 C.ar    1  UNL1        0.0001
     15 C         142.2374  140.7700  168.7507 C.ar    1  UNL1        0.0000
     16 C         143.2245  141.4537  169.6497 C.ar    1  UNL1        0.0000
     17 C         139.5039  142.3124  161.8198 C.ar    1  UNL1        0.0858
     18 C         138.2338  142.4783  161.0391 C.ar    1  UNL1        0.1090
     19 N         138.5984  142.8843  159.6418 N.ar    1  UNL1       -0.2346
     20 C         140.0937  142.9694  159.5590 C.ar    1  UNL1        0.1346
     21 S         140.6533  142.6159  160.9051 S.2     1  UNL1       -0.0614
     22 N         141.6832  142.8813  166.5025 N.pl3   1  UNL1       -0.3131
     23 H         141.3846  143.2691  167.3567 H       1  UNL1        0.1485
     24 C         143.1253  142.9741  166.1001 C.3     1  UNL1        0.1348
     25 C         143.7613  141.8577  165.3260 C.ar    1  UNL1        0.0788
     26 C         144.7879  142.1630  164.2759 C.ar    1  UNL1        0.0165
     27 C         145.4239  141.0466  163.5018 C.ar    1  UNL1        0.0029
     28 C         145.0333  139.6250  163.7778 C.ar    1  UNL1        0.0207
     29 C         144.0066  139.3197  164.8280 C.ar    1  UNL1        0.0985
     30 N         143.3706  140.4360  165.6020 N.ar    1  UNL1       -0.2464
@<TRIPOS>BOND
     1    11    12   ar
     2    12    13   ar
     3    13    14   ar
     4    14     1    1
     5     1     2   ar
     6     2     3   ar
     7     3     4   ar
     8     4     5   ar
     9     5     6   ar
    10     6     7   ar
    11     7    17    1
    12    17    18   ar
    13    18    19   ar
    14    19    20   ar
    15    20    21   ar
    16     7     8   ar
    17     8     9   ar
    18     9    22    1
    19    22    24    1
    20    24    25    1
    21    25    26   ar
    22    26    27   ar
    23    27    28   ar
    24    28    29   ar
    25    29    30   ar
    26     9    10   ar
    27    14    15   ar
    28    15    16   ar
    29    16    11   ar
    30    10     1   ar
    31    10     5   ar
    32    21    17   ar
    33    30    25   ar
    34    22    23    1
@<TRIPOS>MOLECULE
*****
 30 34 0 0 0
SMALL
GASTEIGER

@<TRIPOS>ATOM
      1 C         138.7528  141.8848  163.0641 C.ar    1  UNL1        0.0041
      2 C         137.8408  142.9647  162.5621 C.ar    1  UNL1        0.0002
      3 C         137.6409  144.2128  163.3695 C.ar    1  UNL1        0.0015
      4 C         138.3530  144.3811  164.6790 C.ar    1  UNL1        0.0192
      5 C         139.2649  143.3012  165.1810 C.ar    1  UNL1        0.0856
      6 N         139.9770  143.4695  166.4904 N.ar    1  UNL1       -0.2260
      7 C         140.8889  142.3896  166.9924 C.ar    1  UNL1        0.1712
      8 N         141.0889  141.1413  166.1850 N.ar    1  UNL1       -0.2115
      9 C         140.3768  140.9730  164.8755 C.ar    1  UNL1        0.1318
     10 C         139.4648  142.0530  164.3735 C.ar    1  UNL1        0.0491
     11 C         139.3527  138.1400  160.6417 C.ar    1  UNL1        0.0000
     12 C         138.3323  138.1668  161.7409 C.ar    1  UNL1        0.0000
     13 C         138.1324  139.4151  162.5483 C.ar    1  UNL1        0.0000
     14 C         138.9527  140.6365  162.2566 C.ar    1  UNL1        0.0001
     15 C         139.9731  140.6097  161.1575 C.ar    1  UNL1        0.0000
     16 C         140.1731  139.3615  160.3500 C.ar    1  UNL1        0.0000
     17 C         141.6010  142.5578  168.3019 C.ar    1  UNL1        0.0858
     18 C         141.0239  143.1612  169.5481 C.ar    1  UNL1        0.1090
     19 N         142.0814  143.1285  170.6115 N.ar    1  UNL1       -0.2346
     20 C         143.3120  142.5050  170.0225 C.ar    1  UNL1        0.1346
     21 S         143.0150  142.1523  168.5951 S.2     1  UNL1       -0.0614
     22 N         140.5768  139.7248  164.0681 N.pl3   1  UNL1       -0.3131
     23 H         139.8088  139.2969  163.6250 H       1  UNL1        0.1485
     24 C         141.9468  139.1286  163.9357 C.3     1  UNL1        0.1348
     25 C         143.1126  140.0007  163.5747 C.ar    1  UNL1        0.0788
     26 C         143.0641  140.8417  162.3336 C.ar    1  UNL1        0.0165
     27 C         144.2299  141.7139  161.9725 C.ar    1  UNL1        0.0029
     28 C         145.4442  141.7450  162.8526 C.ar    1  UNL1        0.0207
     29 C         145.4926  140.9040  164.0938 C.ar    1  UNL1        0.0985
     30 N         144.3269  140.0319  164.4548 N.ar    1  UNL1       -0.2464
@<TRIPOS>BOND
     1    11    12   ar
     2    12    13   ar
     3    13    14   ar
     4    14     1    1
     5     1     2   ar
     6     2     3   ar
     7     3     4   ar
     8     4     5   ar
     9     5     6   ar
    10     6     7   ar
    11     7    17    1
    12    17    18   ar
    13    18    19   ar
    14    19    20   ar
    15    20    21   ar
    16     7     8   ar
    17     8     9   ar
    18     9    22    1
    19    22    24    1
    20    24    25    1
    21    25    26   ar
    22    26    27   ar
    23    27    28   ar
    24    28    29   ar
    25    29    30   ar
    26     9    10   ar
    27    14    15   ar
    28    15    16   ar
    29    16    11   ar
    30    10     1   ar
    31    10     5   ar
    32    21    17   ar
    33    30    25   ar
    34    22    23    1
@<TRIPOS>MOLECULE
*****
 30 34 0 0 0
SMALL
GASTEIGER

@<TRIPOS>ATOM
      1 C         143.5267  142.5047  164.5058 C.ar    1  UNL1        0.0041
      2 C         144.2307  143.5797  165.2795 C.ar    1  UNL1        0.0002
      3 C         144.2436  144.9884  164.7644 C.ar    1  UNL1        0.0015
      4 C         143.5525  145.3221  163.4756 C.ar    1  UNL1        0.0192
      5 C         142.8485  144.2471  162.7019 C.ar    1  UNL1        0.0856
      6 N         142.1574  144.5808  161.4131 N.ar    1  UNL1       -0.2260
      7 C         141.4534  143.5058  160.6393 C.ar    1  UNL1        0.1712
      8 N         141.4405  142.0970  161.1544 N.ar    1  UNL1       -0.2115
      9 C         142.1316  141.7633  162.4432 C.ar    1  UNL1        0.1318
     10 C         142.8356  142.8384  163.2170 C.ar    1  UNL1        0.0491
     11 C         143.4880  138.2784  166.0509 C.ar    1  UNL1        0.0000
     12 C         144.5268  138.7037  165.0560 C.ar    1  UNL1        0.0000
     13 C         144.5397  140.1125  164.5409 C.ar    1  UNL1        0.0000
     14 C         143.5138  141.0959  165.0208 C.ar    1  UNL1        0.0001
     15 C         142.4750  140.6706  166.0157 C.ar    1  UNL1        0.0000
     16 C         142.4620  139.2619  166.5308 C.ar    1  UNL1        0.0000
     17 C         140.7623  143.8395  159.3505 C.ar    1  UNL1        0.0858
     18 C         140.8194  145.1565  158.6347 C.ar    1  UNL1        0.1090
     19 N         139.9851  145.0457  157.3930 N.ar    1  UNL1       -0.2346
     20 C         139.4123  143.6603  157.3415 C.ar    1  UNL1        0.1346
     21 S         139.8927  142.9149  158.5513 S.2     1  UNL1       -0.0614
     22 N         142.1187  140.3546  162.9583 N.pl3   1  UNL1       -0.3131
     23 H         142.8941  140.0045  163.4537 H       1  UNL1        0.1485
     24 C         140.9244  139.4792  162.7185 C.3     1  UNL1        0.1348
     25 C         139.9819  139.1716  163.8440 C.ar    1  UNL1        0.0788
     26 C         139.8134  137.7578  164.3160 C.ar    1  UNL1        0.0165
     27 C         138.8709  137.4501  165.4416 C.ar    1  UNL1        0.0029
     28 C         138.0969  138.5562  166.0953 C.ar    1  UNL1        0.0207
     29 C         138.2654  139.9701  165.6233 C.ar    1  UNL1        0.0985
     30 N         139.2079  140.2777  164.4977 N.ar    1  UNL1       -0.2464
@<TRIPOS>BOND
     1    11    12   ar
     2    12    13   ar
     3    13    14   ar
     4    14     1    1
     5     1     2   ar
     6     2     3   ar
     7     3     4   ar
     8     4     5   ar
     9     5     6   ar
    10     6     7   ar
    11     7    17    1
    12    17    18   ar
    13    18    19   ar
    14    19    20   ar
    15    20    21   ar
    16     7     8   ar
    17     8     9   ar
    18     9    22    1
    19    22    24    1
    20    24    25    1
    21    25    26   ar
    22    26    27   ar
    23    27    28   ar
    24    28    29   ar
    25    29    30   ar
    26     9    10   ar
    27    14    15   ar
    28    15    16   ar
    29    16    11   ar
    30    10     1   ar
    31    10     5   ar
    32    21    17   ar
    33    30    25   ar
    34    22    23    1
@<TRIPOS>MOLECULE
*****
 30 34 0 0 0
SMALL
GASTEIGER

@<TRIPOS>ATOM
      1 C         139.0180  141.5897  163.7264 C.ar    1  UNL1        0.0041
      2 C         138.1114  142.2887  164.6957 C.ar    1  UNL1        0.0002
      3 C         137.5984  143.6635  164.3849 C.ar    1  UNL1        0.0015
      4 C         137.9920  144.3394  163.1050 C.ar    1  UNL1        0.0192
      5 C         138.8986  143.6405  162.1358 C.ar    1  UNL1        0.0856
      6 N         139.2922  144.3163  160.8558 N.ar    1  UNL1       -0.2260
      7 C         140.1988  143.6174  159.8866 C.ar    1  UNL1        0.1712
      8 N         140.7119  142.2425  160.1973 N.ar    1  UNL1       -0.2115
      9 C         140.3183  141.5666  161.4772 C.ar    1  UNL1        0.1318
     10 C         139.4116  142.2656  162.4465 C.ar    1  UNL1        0.0491
     11 C         140.5573  137.4651  164.6585 C.ar    1  UNL1        0.0000
     12 C         139.3214  137.6339  163.8254 C.ar    1  UNL1        0.0000
     13 C         138.8083  139.0088  163.5147 C.ar    1  UNL1        0.0000
     14 C         139.5311  140.2148  164.0371 C.ar    1  UNL1        0.0001
     15 C         140.7670  140.0461  164.8702 C.ar    1  UNL1        0.0000
     16 C         141.2801  138.6713  165.1809 C.ar    1  UNL1        0.0000
     17 C         140.5924  144.2933  158.6066 C.ar    1  UNL1        0.0858
     18 C         140.0690  143.9659  157.2395 C.ar    1  UNL1        0.1090
     19 N         140.7316  144.8855  156.2570 N.ar    1  UNL1       -0.2346
     20 C         141.6645  145.7812  157.0169 C.ar    1  UNL1        0.1346
     21 S         141.5785  145.4152  158.4690 S.2     1  UNL1       -0.0614
     22 N         140.8313  140.1918  161.7879 N.pl3   1  UNL1       -0.3131
     23 H         140.2411  139.5318  162.2184 H       1  UNL1        0.1485
     24 C         142.2437  139.8225  161.4428 C.3     1  UNL1        0.1348
     25 C         143.3843  140.4175  162.2141 C.ar    1  UNL1        0.0788
     26 C         144.1026  139.5966  163.2437 C.ar    1  UNL1        0.0165
     27 C         145.2433  140.1916  164.0150 C.ar    1  UNL1        0.0029
     28 C         145.6656  141.6076  163.7566 C.ar    1  UNL1        0.0207
     29 C         144.9472  142.4285  162.7270 C.ar    1  UNL1        0.0985
     30 N         143.8066  141.8335  161.9557 N.ar    1  UNL1       -0.2464
@<TRIPOS>BOND
     1    11    12   ar
     2    12    13   ar
     3    13    14   ar
     4    14     1    1
     5     1     2   ar
     6     2     3   ar
     7     3     4   ar
     8     4     5   ar
     9     5     6   ar
    10     6     7   ar
    11     7    17    1
    12    17    18   ar
    13    18    19   ar
    14    19    20   ar
    15    20    21   ar
    16     7     8   ar
    17     8     9   ar
    18     9    22    1
    19    22    24    1
    20    24    25    1
    21    25    26   ar
    22    26    27   ar
    23    27    28   ar
    24    28    29   ar
    25    29    30   ar
    26     9    10   ar
    27    14    15   ar
    28    15    16   ar
    29    16    11   ar
    30    10     1   ar
    31    10     5   ar
    32    21    17   ar
    33    30    25   ar
    34    22    23    1
