@<TRIPOS>MOLECULE
*****
 37 41 0 0 0
SMALL
GASTEIGER

@<TRIPOS>ATOM
      1 C         139.9904  145.5930  155.7015 C.ar    1  UNL1       -0.0065
      2 C         139.0400  144.4453  155.5307 C.ar    1  UNL1       -0.0033
      3 C         138.7183  143.5580  156.6965 C.ar    1  UNL1       -0.0048
      4 C         139.3472  143.8185  158.0332 C.ar    1  UNL1       -0.0245
      5 C         140.2976  144.9663  158.2040 C.ar    1  UNL1       -0.0263
      6 C         140.6192  145.8536  157.0381 C.ar    1  UNL1       -0.0075
      7 C         140.9265  145.2268  159.5407 C.3     1  UNL1        0.0277
      8 C         140.6048  144.3396  160.7065 C.3     1  UNL1        0.0248
      9 C         139.6543  143.1917  160.5358 C.3     1  UNL1        0.0801
     10 C         139.0255  142.9312  159.1991 C.3     1  UNL1        0.0458
     11 N         139.3327  142.3044  161.7016 N.am    1  UNL1       -0.2783
     12 C         140.0467  140.9957  161.8675 C.3     1  UNL1        0.1107
     13 C         139.7251  140.1084  163.0334 C.3     1  UNL1        0.0942
     14 N         138.6895  140.5299  164.0334 N.3     1  UNL1       -0.2632
     15 C         137.9756  141.8385  163.8676 C.3     1  UNL1        0.1587
     16 C         138.2972  142.7259  162.7017 C.2     1  UNL1        0.2420
     17 O         137.5833  144.0346  162.5358 O.2     1  UNL1       -0.2734
     18 C         138.3679  139.6426  165.1993 C.3     1  UNL1        0.0773
     19 C         139.4028  139.3859  166.2544 C.3     1  UNL1        0.0437
     20 C         139.6973  140.4334  167.2867 C.ar    1  UNL1       -0.0206
     21 C         140.3050  141.7417  166.8755 C.ar    1  UNL1       -0.0019
     22 C         140.5995  142.7893  167.9079 C.ar    1  UNL1        0.0293
     23 C         140.2863  142.5287  169.3515 C.ar    1  UNL1        0.1401
     24 F         140.5808  143.5762  170.3838 F       1  UNL1       -0.2042
     25 C         139.6786  141.2203  169.7627 C.ar    1  UNL1        0.0293
     26 C         139.3841  140.1727  168.7303 C.ar    1  UNL1       -0.0019
     27 C         140.3121  146.4804  154.5356 C.3     1  UNL1        0.0992
     28 N         139.1298  150.8215  154.6184 N.3     1  UNL1       -0.1565
     29 C         138.5385  149.8641  155.6101 C.3     1  UNL1        0.1128
     30 C         138.9325  148.4170  155.5826 C.3     1  UNL1        0.0917
     31 N         139.9180  147.9274  154.5632 N.3     1  UNL1       -0.2664
     32 C         140.5093  148.8848  153.5713 C.3     1  UNL1        0.0917
     33 C         140.1152  150.3319  153.5989 C.3     1  UNL1        0.1128
     34 C         138.3416  153.7156  154.6736 C.3     1  UNL1        0.1960
     35 S         138.7357  152.2685  154.6460 S.O2    1  UNL1        0.0457
     36 O         138.9305  152.2932  156.1330 O.2     1  UNL1       -0.1572
     37 O         138.5409  152.2438  153.1589 O.2     1  UNL1       -0.1572
@<TRIPOS>BOND
     1    34    35    1
     2    35    36    2
     3    35    37    2
     4    35    28    1
     5    28    29    1
     6    29    30    1
     7    30    31    1
     8    31    27    1
     9    27     1    1
    10     1     2   ar
    11     2     3   ar
    12     3     4   ar
    13     4     5   ar
    14     5     6   ar
    15     5     7    1
    16     7     8    1
    17     8     9    1
    18     9    11    1
    19    11    12    1
    20    12    13    1
    21    13    14    1
    22    14    18    1
    23    18    19    1
    24    19    20    1
    25    20    21   ar
    26    21    22   ar
    27    22    23   ar
    28    23    24    1
    29    23    25   ar
    30    25    26   ar
    31    14    15    1
    32    15    16    1
    33    16    17    2
    34     9    10    1
    35    31    32    1
    36    32    33    1
    37    33    28    1
    38     6     1   ar
    39    16    11   am
    40    10     4    1
    41    26    20   ar
@<TRIPOS>MOLECULE
*****
 37 41 0 0 0
SMALL
GASTEIGER

@<TRIPOS>ATOM
      1 C         140.1741  145.9023  155.0412 C.ar    1  UNL1       -0.0065
      2 C         141.2772  145.8370  156.0554 C.ar    1  UNL1       -0.0033
      3 C         141.2161  144.8309  157.1662 C.ar    1  UNL1       -0.0048
      4 C         140.0518  143.8901  157.2628 C.ar    1  UNL1       -0.0245
      5 C         138.9486  143.9554  156.2486 C.ar    1  UNL1       -0.0263
      6 C         139.0098  144.9615  155.1377 C.ar    1  UNL1       -0.0075
      7 C         137.7843  143.0146  156.3451 C.3     1  UNL1        0.0277
      8 C         137.7232  142.0085  157.4560 C.3     1  UNL1        0.0248
      9 C         138.8264  141.9432  158.4703 C.3     1  UNL1        0.0801
     10 C         139.9907  142.8840  158.3737 C.3     1  UNL1        0.0458
     11 N         138.7652  140.9371  159.5811 N.am    1  UNL1       -0.2783
     12 C         139.2618  139.5397  159.3556 C.3     1  UNL1        0.1107
     13 C         139.2007  138.5336  160.4665 C.3     1  UNL1        0.0942
     14 N         138.6429  138.9248  161.8028 N.3     1  UNL1       -0.2632
     15 C         138.1464  140.3221  162.0284 C.3     1  UNL1        0.1587
     16 C         138.2075  141.3283  160.9175 C.2     1  UNL1        0.2420
     17 O         137.7109  142.7256  161.1430 O.2     1  UNL1       -0.2734
     18 C         138.5818  137.9187  162.9137 C.3     1  UNL1        0.0773
     19 C         139.6854  137.8529  163.9275 C.3     1  UNL1        0.0437
     20 C         139.5153  138.5103  165.2650 C.ar    1  UNL1       -0.0206
     21 C         138.2248  138.3619  166.0149 C.ar    1  UNL1       -0.0019
     22 C         138.0547  139.0194  167.3524 C.ar    1  UNL1        0.0293
     23 C         139.1751  139.8252  167.9399 C.ar    1  UNL1        0.1401
     24 F         139.0051  140.4827  169.2774 F       1  UNL1       -0.2042
     25 C         140.4657  139.9736  167.1899 C.ar    1  UNL1        0.0293
     26 C         140.6358  139.3162  165.8525 C.ar    1  UNL1       -0.0019
     27 C         140.2352  146.9084  153.9302 C.3     1  UNL1        0.0992
     28 N         138.9849  151.1658  154.6791 N.3     1  UNL1       -0.1565
     29 C         138.6711  150.1032  155.6902 C.3     1  UNL1        0.1128
     30 C         139.0879  148.6840  155.4406 C.3     1  UNL1        0.0917
     31 N         139.8184  148.3275  154.1799 N.3     1  UNL1       -0.2664
     32 C         140.1321  149.3903  153.1688 C.3     1  UNL1        0.0917
     33 C         139.7154  150.8094  153.4184 C.3     1  UNL1        0.1128
     34 C         138.1513  154.0042  155.1783 C.3     1  UNL1        0.1960
     35 S         138.5681  152.5850  154.9287 S.O2    1  UNL1        0.0457
     36 O         138.2132  152.7357  153.4792 O.2     1  UNL1       -0.1572
     37 O         138.9230  152.4342  156.3783 O.2     1  UNL1       -0.1572
@<TRIPOS>BOND
     1    34    35    1
     2    35    36    2
     3    35    37    2
     4    35    28    1
     5    28    29    1
     6    29    30    1
     7    30    31    1
     8    31    27    1
     9    27     1    1
    10     1     2   ar
    11     2     3   ar
    12     3     4   ar
    13     4     5   ar
    14     5     6   ar
    15     5     7    1
    16     7     8    1
    17     8     9    1
    18     9    11    1
    19    11    12    1
    20    12    13    1
    21    13    14    1
    22    14    18    1
    23    18    19    1
    24    19    20    1
    25    20    21   ar
    26    21    22   ar
    27    22    23   ar
    28    23    24    1
    29    23    25   ar
    30    25    26   ar
    31    14    15    1
    32    15    16    1
    33    16    17    2
    34     9    10    1
    35    31    32    1
    36    32    33    1
    37    33    28    1
    38     6     1   ar
    39    16    11   am
    40    10     4    1
    41    26    20   ar
@<TRIPOS>MOLECULE
*****
 37 41 0 0 0
SMALL
GASTEIGER

@<TRIPOS>ATOM
      1 C         139.9012  145.2904  156.2751 C.ar    1  UNL1       -0.0065
      2 C         139.1108  144.0156  156.2762 C.ar    1  UNL1       -0.0033
      3 C         138.9451  143.2370  157.5476 C.ar    1  UNL1       -0.0048
      4 C         139.5698  143.7333  158.8178 C.ar    1  UNL1       -0.0245
      5 C         140.3602  145.0081  158.8167 C.ar    1  UNL1       -0.0263
      6 C         140.5259  145.7866  157.5453 C.ar    1  UNL1       -0.0075
      7 C         140.9849  145.5044  160.0869 C.3     1  UNL1        0.0277
      8 C         140.8192  144.7258  161.3582 C.3     1  UNL1        0.0248
      9 C         140.0287  143.4510  161.3594 C.3     1  UNL1        0.0801
     10 C         139.4040  142.9547  160.0892 C.3     1  UNL1        0.0458
     11 N         139.8630  142.6724  162.6308 N.am    1  UNL1       -0.2783
     12 C         138.6096  142.8187  163.4418 C.3     1  UNL1        0.1107
     13 C         138.4438  142.0401  164.7132 C.3     1  UNL1        0.0942
     14 N         139.5314  141.1154  165.1735 N.3     1  UNL1       -0.2632
     15 C         140.7848  140.9691  164.3626 C.3     1  UNL1        0.1587
     16 C         140.9506  141.7477  163.0911 C.2     1  UNL1        0.2420
     17 O         142.2039  141.6014  162.2802 O.2     1  UNL1       -0.2734
     18 C         139.3657  140.3368  166.4449 C.3     1  UNL1        0.0773
     19 C         140.5724  139.9272  167.2363 C.3     1  UNL1        0.0437
     20 C         141.2347  140.9094  168.1563 C.ar    1  UNL1       -0.0206
     21 C         140.5157  142.1629  168.5584 C.ar    1  UNL1       -0.0019
     22 C         141.1780  143.1452  169.4785 C.ar    1  UNL1        0.0293
     23 C         142.5594  142.8739  169.9965 C.ar    1  UNL1        0.1401
     24 F         143.2217  143.8561  170.9166 F       1  UNL1       -0.2042
     25 C         143.2784  141.6203  169.5944 C.ar    1  UNL1        0.0293
     26 C         142.6161  140.6381  168.6743 C.ar    1  UNL1       -0.0019
     27 C         140.0670  146.0690  155.0037 C.3     1  UNL1        0.0992
     28 N         139.1633  150.4767  154.9305 N.3     1  UNL1       -0.1565
     29 C         140.0783  149.8815  153.9017 C.3     1  UNL1        0.1128
     30 C         140.3796  148.4122  153.9261 C.3     1  UNL1        0.0917
     31 N         139.7658  147.5382  154.9793 N.3     1  UNL1       -0.2664
     32 C         138.8507  148.1334  156.0081 C.3     1  UNL1        0.0917
     33 C         138.5495  149.6026  155.9837 C.3     1  UNL1        0.1128
     34 C         138.5608  153.4152  154.8817 C.3     1  UNL1        0.1960
     35 S         138.8620  151.9459  154.9061 S.O2    1  UNL1        0.0457
     36 O         138.7257  151.8931  153.4133 O.2     1  UNL1       -0.1572
     37 O         138.9984  151.9986  156.3989 O.2     1  UNL1       -0.1572
@<TRIPOS>BOND
     1    34    35    1
     2    35    36    2
     3    35    37    2
     4    35    28    1
     5    28    29    1
     6    29    30    1
     7    30    31    1
     8    31    27    1
     9    27     1    1
    10     1     2   ar
    11     2     3   ar
    12     3     4   ar
    13     4     5   ar
    14     5     6   ar
    15     5     7    1
    16     7     8    1
    17     8     9    1
    18     9    11    1
    19    11    12    1
    20    12    13    1
    21    13    14    1
    22    14    18    1
    23    18    19    1
    24    19    20    1
    25    20    21   ar
    26    21    22   ar
    27    22    23   ar
    28    23    24    1
    29    23    25   ar
    30    25    26   ar
    31    14    15    1
    32    15    16    1
    33    16    17    2
    34     9    10    1
    35    31    32    1
    36    32    33    1
    37    33    28    1
    38     6     1   ar
    39    16    11   am
    40    10     4    1
    41    26    20   ar
@<TRIPOS>MOLECULE
*****
 37 41 0 0 0
SMALL
GASTEIGER

@<TRIPOS>ATOM
      1 C         139.3556  139.1189  164.9827 C.ar    1  UNL1       -0.0065
      2 C         140.1981  137.8872  164.8311 C.ar    1  UNL1       -0.0033
      3 C         140.7053  137.4875  163.4772 C.ar    1  UNL1       -0.0048
      4 C         140.3700  138.3195  162.2750 C.ar    1  UNL1       -0.0245
      5 C         139.5276  139.5513  162.4266 C.ar    1  UNL1       -0.0263
      6 C         139.0203  139.9509  163.7805 C.ar    1  UNL1       -0.0075
      7 C         139.1923  140.3833  161.2244 C.3     1  UNL1        0.0277
      8 C         139.6995  139.9836  159.8706 C.3     1  UNL1        0.0248
      9 C         140.5421  138.7518  159.7189 C.3     1  UNL1        0.0801
     10 C         140.8773  137.9198  160.9211 C.3     1  UNL1        0.0458
     11 N         141.0493  138.3522  158.3651 N.am    1  UNL1       -0.2783
     12 C         140.0881  137.8887  157.3108 C.3     1  UNL1        0.1107
     13 C         140.5954  137.4890  155.9569 C.3     1  UNL1        0.0942
     14 N         142.0637  137.5528  155.6573 N.3     1  UNL1       -0.2632
     15 C         143.0249  138.0162  156.7115 C.3     1  UNL1        0.1587
     16 C         142.5177  138.4159  158.0654 C.2     1  UNL1        0.2420
     17 O         143.4788  138.8793  159.1196 O.2     1  UNL1       -0.2734
     18 C         142.5710  137.1531  154.3035 C.3     1  UNL1        0.0773
     19 C         142.3027  135.7735  153.7792 C.3     1  UNL1        0.0437
     20 C         142.4798  134.5833  154.6748 C.ar    1  UNL1       -0.0206
     21 C         141.4684  133.4757  154.6589 C.ar    1  UNL1       -0.0019
     22 C         141.6454  132.2855  155.5545 C.ar    1  UNL1        0.0293
     23 C         142.8339  132.2029  156.4659 C.ar    1  UNL1        0.1401
     24 F         143.0110  131.0127  157.3615 F       1  UNL1       -0.2042
     25 C         143.8453  133.3105  156.4818 C.ar    1  UNL1        0.0293
     26 C         143.6683  134.5007  155.5862 C.ar    1  UNL1       -0.0019
     27 C         138.8483  139.5186  166.3366 C.3     1  UNL1        0.0992
     28 N         141.4593  141.9313  169.0955 N.3     1  UNL1       -0.1565
     29 C         141.5862  142.0941  167.6098 C.3     1  UNL1        0.1128
     30 C         140.7159  141.2898  166.6901 C.3     1  UNL1        0.0917
     31 N         139.7186  140.3229  167.2562 N.3     1  UNL1       -0.2664
     32 C         139.5917  140.1601  168.7420 C.3     1  UNL1        0.0917
     33 C         140.4620  140.9644  169.6616 C.3     1  UNL1        0.1128
     34 C         143.1999  143.5398  170.9348 C.3     1  UNL1        0.1960
     35 S         142.3296  142.7356  170.0151 S.O2    1  UNL1        0.0457
     36 O         141.2329  142.7523  171.0383 O.2     1  UNL1       -0.1572
     37 O         143.4263  142.7188  168.9919 O.2     1  UNL1       -0.1572
@<TRIPOS>BOND
     1    34    35    1
     2    35    36    2
     3    35    37    2
     4    35    28    1
     5    28    29    1
     6    29    30    1
     7    30    31    1
     8    31    27    1
     9    27     1    1
    10     1     2   ar
    11     2     3   ar
    12     3     4   ar
    13     4     5   ar
    14     5     6   ar
    15     5     7    1
    16     7     8    1
    17     8     9    1
    18     9    11    1
    19    11    12    1
    20    12    13    1
    21    13    14    1
    22    14    18    1
    23    18    19    1
    24    19    20    1
    25    20    21   ar
    26    21    22   ar
    27    22    23   ar
    28    23    24    1
    29    23    25   ar
    30    25    26   ar
    31    14    15    1
    32    15    16    1
    33    16    17    2
    34     9    10    1
    35    31    32    1
    36    32    33    1
    37    33    28    1
    38     6     1   ar
    39    16    11   am
    40    10     4    1
    41    26    20   ar
@<TRIPOS>MOLECULE
*****
 37 41 0 0 0
SMALL
GASTEIGER

@<TRIPOS>ATOM
      1 C         141.7637  136.1389  155.8802 C.ar    1  UNL1       -0.0065
      2 C         140.3427  136.5712  155.6707 C.ar    1  UNL1       -0.0033
      3 C         139.7425  137.6269  156.5511 C.ar    1  UNL1       -0.0048
      4 C         140.5632  138.2504  157.6409 C.ar    1  UNL1       -0.0245
      5 C         141.9842  137.8181  157.8504 C.ar    1  UNL1       -0.0263
      6 C         142.5844  136.7624  156.9700 C.ar    1  UNL1       -0.0075
      7 C         142.8049  138.4415  158.9402 C.3     1  UNL1        0.0277
      8 C         142.2047  139.4972  159.8206 C.3     1  UNL1        0.0248
      9 C         140.7836  139.9296  159.6112 C.3     1  UNL1        0.0801
     10 C         139.9629  139.3062  158.5213 C.3     1  UNL1        0.0458
     11 N         140.1834  140.9853  160.4915 N.am    1  UNL1       -0.2783
     12 C         140.2675  142.4295  160.0949 C.3     1  UNL1        0.1107
     13 C         139.6672  143.4853  160.9753 C.3     1  UNL1        0.0942
     14 N         138.9829  143.0969  162.2523 N.3     1  UNL1       -0.2632
     15 C         138.8989  141.6528  162.6490 C.3     1  UNL1        0.1587
     16 C         139.4991  140.5969  161.7686 C.2     1  UNL1        0.2420
     17 O         139.4150  139.1528  162.1653 O.2     1  UNL1       -0.2734
     18 C         138.3827  144.1526  163.1327 C.3     1  UNL1        0.0773
     19 C         139.2315  144.8480  164.1554 C.3     1  UNL1        0.0437
     20 C         140.6657  144.4478  164.3372 C.ar    1  UNL1       -0.0206
     21 C         141.0093  143.2435  165.1628 C.ar    1  UNL1       -0.0019
     22 C         142.4435  142.8433  165.3446 C.ar    1  UNL1        0.0293
     23 C         143.5340  143.6474  164.7009 C.ar    1  UNL1        0.1401
     24 F         144.9681  143.2472  164.8828 F       1  UNL1       -0.2042
     25 C         143.1902  144.8517  163.8754 C.ar    1  UNL1        0.0293
     26 C         141.7561  145.2519  163.6935 C.ar    1  UNL1       -0.0019
     27 C         142.3640  135.0831  154.9998 C.3     1  UNL1        0.0992
     28 N         143.5224  131.0967  156.7366 N.3     1  UNL1       -0.1565
     29 C         144.4440  132.2719  156.8761 C.3     1  UNL1        0.1128
     30 C         144.0579  133.6008  156.2972 C.3     1  UNL1        0.0917
     31 N         142.7502  133.7544  155.5787 N.3     1  UNL1       -0.2664
     32 C         141.8285  132.5791  155.4392 C.3     1  UNL1        0.0917
     33 C         142.2147  131.2503  156.0181 C.3     1  UNL1        0.1128
     34 C         144.2947  128.4391  157.8945 C.3     1  UNL1        0.1960
     35 S         143.9086  129.7679  157.3155 S.O2    1  UNL1        0.0457
     36 O         144.8231  130.4561  158.2850 O.2     1  UNL1       -0.1572
     37 O         142.9940  129.0798  156.3459 O.2     1  UNL1       -0.1572
@<TRIPOS>BOND
     1    34    35    1
     2    35    36    2
     3    35    37    2
     4    35    28    1
     5    28    29    1
     6    29    30    1
     7    30    31    1
     8    31    27    1
     9    27     1    1
    10     1     2   ar
    11     2     3   ar
    12     3     4   ar
    13     4     5   ar
    14     5     6   ar
    15     5     7    1
    16     7     8    1
    17     8     9    1
    18     9    11    1
    19    11    12    1
    20    12    13    1
    21    13    14    1
    22    14    18    1
    23    18    19    1
    24    19    20    1
    25    20    21   ar
    26    21    22   ar
    27    22    23   ar
    28    23    24    1
    29    23    25   ar
    30    25    26   ar
    31    14    15    1
    32    15    16    1
    33    16    17    2
    34     9    10    1
    35    31    32    1
    36    32    33    1
    37    33    28    1
    38     6     1   ar
    39    16    11   am
    40    10     4    1
    41    26    20   ar
@<TRIPOS>MOLECULE
*****
 37 41 0 0 0
SMALL
GASTEIGER

@<TRIPOS>ATOM
      1 C         138.7817  139.8374  163.6061 C.ar    1  UNL1       -0.0065
      2 C         137.7497  140.9259  163.6009 C.ar    1  UNL1       -0.0033
      3 C         137.6814  141.8890  162.4530 C.ar    1  UNL1       -0.0048
      4 C         138.6450  141.7636  161.3103 C.ar    1  UNL1       -0.0245
      5 C         139.6770  140.6751  161.3155 C.ar    1  UNL1       -0.0263
      6 C         139.7453  139.7120  162.4634 C.ar    1  UNL1       -0.0075
      7 C         140.6406  140.5497  160.1729 C.3     1  UNL1        0.0277
      8 C         140.5723  141.5128  159.0250 C.3     1  UNL1        0.0248
      9 C         139.5403  142.6014  159.0198 C.3     1  UNL1        0.0801
     10 C         138.5767  142.7268  160.1624 C.3     1  UNL1        0.0458
     11 N         139.4720  143.5646  157.8719 N.am    1  UNL1       -0.2783
     12 C         138.6968  143.2074  156.6383 C.3     1  UNL1        0.1107
     13 C         138.6285  144.1706  155.4904 C.3     1  UNL1        0.0942
     14 N         139.3353  145.4908  155.5761 N.3     1  UNL1       -0.2632
     15 C         140.1104  145.8480  156.8096 C.3     1  UNL1        0.1587
     16 C         140.1788  144.8848  157.9575 C.2     1  UNL1        0.2420
     17 O         140.9539  145.2420  159.1910 O.2     1  UNL1       -0.2734
     18 C         139.2669  146.4540  154.4282 C.3     1  UNL1        0.0773
     19 C         140.2012  147.6264  154.3762 C.3     1  UNL1        0.0437
     20 C         139.6705  149.0171  154.5603 C.ar    1  UNL1       -0.0206
     21 C         138.8159  149.3424  155.7494 C.ar    1  UNL1       -0.0019
     22 C         138.2850  150.7332  155.9335 C.ar    1  UNL1        0.0293
     23 C         138.6088  151.7988  154.9286 C.ar    1  UNL1        0.1401
     24 F         138.0780  153.1895  155.1128 F       1  UNL1       -0.2042
     25 C         139.4635  151.4734  153.7396 C.ar    1  UNL1        0.0293
     26 C         139.9942  150.0827  153.5554 C.ar    1  UNL1       -0.0019
     27 C         138.8501  138.8742  164.7540 C.3     1  UNL1        0.0992
     28 N         140.9776  140.0385  168.5445 N.3     1  UNL1       -0.1565
     29 C         141.7640  139.7645  167.2969 C.3     1  UNL1        0.1128
     30 C         141.0548  139.3764  166.0334 C.3     1  UNL1        0.0917
     31 N         139.5593  139.2622  166.0175 N.3     1  UNL1       -0.2664
     32 C         138.7729  139.5362  167.2651 C.3     1  UNL1        0.0917
     33 C         139.4820  139.9243  168.5286 C.3     1  UNL1        0.1128
     34 C         142.3960  140.8146  171.0715 C.3     1  UNL1        0.1960
     35 S         141.6868  140.4265  169.8080 S.O2    1  UNL1        0.0457
     36 O         142.9784  139.9190  169.2389 O.2     1  UNL1       -0.1572
     37 O         140.3951  140.9341  170.3771 O.2     1  UNL1       -0.1572
@<TRIPOS>BOND
     1    34    35    1
     2    35    36    2
     3    35    37    2
     4    35    28    1
     5    28    29    1
     6    29    30    1
     7    30    31    1
     8    31    27    1
     9    27     1    1
    10     1     2   ar
    11     2     3   ar
    12     3     4   ar
    13     4     5   ar
    14     5     6   ar
    15     5     7    1
    16     7     8    1
    17     8     9    1
    18     9    11    1
    19    11    12    1
    20    12    13    1
    21    13    14    1
    22    14    18    1
    23    18    19    1
    24    19    20    1
    25    20    21   ar
    26    21    22   ar
    27    22    23   ar
    28    23    24    1
    29    23    25   ar
    30    25    26   ar
    31    14    15    1
    32    15    16    1
    33    16    17    2
    34     9    10    1
    35    31    32    1
    36    32    33    1
    37    33    28    1
    38     6     1   ar
    39    16    11   am
    40    10     4    1
    41    26    20   ar
@<TRIPOS>MOLECULE
*****
 37 41 0 0 0
SMALL
GASTEIGER

@<TRIPOS>ATOM
      1 C         139.3335  143.3066  164.3265 C.ar    1  UNL1       -0.0065
      2 C         137.9997  142.6472  164.1371 C.ar    1  UNL1       -0.0033
      3 C         137.5379  142.2708  162.7605 C.ar    1  UNL1       -0.0048
      4 C         138.4099  142.5539  161.5733 C.ar    1  UNL1       -0.0245
      5 C         139.7438  143.2133  161.7628 C.ar    1  UNL1       -0.0263
      6 C         140.2056  143.5897  163.1394 C.ar    1  UNL1       -0.0075
      7 C         140.6159  143.4964  160.5756 C.3     1  UNL1        0.0277
      8 C         140.1541  143.1200  159.1990 C.3     1  UNL1        0.0248
      9 C         138.8201  142.4606  159.0095 C.3     1  UNL1        0.0801
     10 C         137.9481  142.1775  160.1967 C.3     1  UNL1        0.0458
     11 N         138.3583  142.0842  157.6329 N.am    1  UNL1       -0.2783
     12 C         137.6582  143.0954  156.7741 C.3     1  UNL1        0.1107
     13 C         137.1964  142.7190  155.3975 C.3     1  UNL1        0.0942
     14 N         137.4347  141.3316  154.8797 N.3     1  UNL1       -0.2632
     15 C         138.1348  140.3205  155.7384 C.3     1  UNL1        0.1587
     16 C         138.5966  140.6968  157.1151 C.2     1  UNL1        0.2420
     17 O         139.2967  139.6857  157.9738 O.2     1  UNL1       -0.2734
     18 C         136.9729  140.9552  153.5031 C.3     1  UNL1        0.0773
     19 C         135.7150  140.1574  153.3259 C.3     1  UNL1        0.0437
     20 C         134.6448  140.2014  154.3760 C.ar    1  UNL1       -0.0206
     21 C         134.5713  139.1244  155.4174 C.ar    1  UNL1       -0.0019
     22 C         133.5011  139.1683  156.4676 C.ar    1  UNL1        0.0293
     23 C         132.5045  140.2893  156.4763 C.ar    1  UNL1        0.1401
     24 F         131.4343  140.3333  157.5264 F       1  UNL1       -0.2042
     25 C         132.5780  141.3664  155.4348 C.ar    1  UNL1        0.0293
     26 C         133.6482  141.3224  154.3847 C.ar    1  UNL1       -0.0019
     27 C         139.7954  143.6830  165.7032 C.3     1  UNL1        0.0992
     28 N         141.5732  140.5603  168.4121 N.3     1  UNL1       -0.1565
     29 C         141.0609  141.8478  168.9866 C.3     1  UNL1        0.1128
     30 C         140.4683  142.8887  168.0836 C.3     1  UNL1        0.0917
     31 N         140.3880  142.6421  166.6062 N.3     1  UNL1       -0.2664
     32 C         140.9003  141.3546  166.0318 C.3     1  UNL1        0.0917
     33 C         141.4929  140.3137  166.9347 C.3     1  UNL1        0.1128
     34 C         142.7584  138.4786  170.2181 C.3     1  UNL1        0.1960
     35 S         142.1658  139.5195  169.3151 S.O2    1  UNL1        0.0457
     36 O         143.1283  139.1288  168.2331 O.2     1  UNL1       -0.1572
     37 O         141.2032  139.9102  170.3972 O.2     1  UNL1       -0.1572
@<TRIPOS>BOND
     1    34    35    1
     2    35    36    2
     3    35    37    2
     4    35    28    1
     5    28    29    1
     6    29    30    1
     7    30    31    1
     8    31    27    1
     9    27     1    1
    10     1     2   ar
    11     2     3   ar
    12     3     4   ar
    13     4     5   ar
    14     5     6   ar
    15     5     7    1
    16     7     8    1
    17     8     9    1
    18     9    11    1
    19    11    12    1
    20    12    13    1
    21    13    14    1
    22    14    18    1
    23    18    19    1
    24    19    20    1
    25    20    21   ar
    26    21    22   ar
    27    22    23   ar
    28    23    24    1
    29    23    25   ar
    30    25    26   ar
    31    14    15    1
    32    15    16    1
    33    16    17    2
    34     9    10    1
    35    31    32    1
    36    32    33    1
    37    33    28    1
    38     6     1   ar
    39    16    11   am
    40    10     4    1
    41    26    20   ar
@<TRIPOS>MOLECULE
*****
 37 41 0 0 0
SMALL
GASTEIGER

@<TRIPOS>ATOM
      1 C         142.9646  138.4127  165.1697 C.ar    1  UNL1       -0.0065
      2 C         141.7617  137.6007  164.7909 C.ar    1  UNL1       -0.0033
      3 C         141.3877  137.4430  163.3468 C.ar    1  UNL1       -0.0048
      4 C         142.2167  138.0973  162.2816 C.ar    1  UNL1       -0.0245
      5 C         143.4197  138.9093  162.6605 C.ar    1  UNL1       -0.0263
      6 C         143.7936  139.0669  164.1045 C.ar    1  UNL1       -0.0075
      7 C         144.2487  139.5636  161.5953 C.3     1  UNL1        0.0277
      8 C         143.8747  139.4059  160.1512 C.3     1  UNL1        0.0248
      9 C         142.6717  138.5939  159.7723 C.3     1  UNL1        0.0801
     10 C         141.8427  137.9396  160.8376 C.3     1  UNL1        0.0458
     11 N         142.2977  138.4363  158.3283 N.am    1  UNL1       -0.2783
     12 C         142.6941  137.1970  157.5819 C.3     1  UNL1        0.1107
     13 C         142.3201  137.0393  156.1379 C.3     1  UNL1        0.0942
     14 N         141.5498  138.1209  155.4402 N.3     1  UNL1       -0.2632
     15 C         141.1534  139.3601  156.1866 C.3     1  UNL1        0.1587
     16 C         141.5274  139.5178  157.6307 C.2     1  UNL1        0.2420
     17 O         141.1310  140.7571  158.3770 O.2     1  UNL1       -0.2734
     18 C         141.1758  137.9632  153.9962 C.3     1  UNL1        0.0773
     19 C         139.8857  137.2943  153.6242 C.3     1  UNL1        0.0437
     20 C         138.6208  138.0966  153.5443 C.ar    1  UNL1       -0.0206
     21 C         138.5544  139.3058  152.6593 C.ar    1  UNL1       -0.0019
     22 C         137.2894  140.1081  152.5793 C.ar    1  UNL1        0.0293
     23 C         136.0910  139.7011  153.3843 C.ar    1  UNL1        0.1401
     24 F         134.8261  140.5033  153.3043 F       1  UNL1       -0.2042
     25 C         136.1574  138.4917  154.2693 C.ar    1  UNL1        0.0293
     26 C         137.4223  137.6895  154.3492 C.ar    1  UNL1       -0.0019
     27 C         143.3387  138.5704  166.6138 C.3     1  UNL1        0.0992
     28 N         141.0170  141.3879  169.2446 N.3     1  UNL1       -0.1565
     29 C         141.7081  140.1994  169.8445 C.3     1  UNL1        0.1128
     30 C         142.4820  139.2602  168.9675 C.3     1  UNL1        0.0917
     31 N         142.5648  139.5095  167.4907 N.3     1  UNL1       -0.2664
     32 C         141.8736  140.6980  166.8908 C.3     1  UNL1        0.0917
     33 C         141.0998  141.6372  167.7678 C.3     1  UNL1        0.1128
     34 C         139.4692  143.2662  170.9985 C.3     1  UNL1        0.1960
     35 S         140.2431  142.3271  170.1215 S.O2    1  UNL1        0.0457
     36 O         140.1856  141.2790  171.1931 O.2     1  UNL1       -0.1572
     37 O         140.3007  143.3751  169.0499 O.2     1  UNL1       -0.1572
@<TRIPOS>BOND
     1    34    35    1
     2    35    36    2
     3    35    37    2
     4    35    28    1
     5    28    29    1
     6    29    30    1
     7    30    31    1
     8    31    27    1
     9    27     1    1
    10     1     2   ar
    11     2     3   ar
    12     3     4   ar
    13     4     5   ar
    14     5     6   ar
    15     5     7    1
    16     7     8    1
    17     8     9    1
    18     9    11    1
    19    11    12    1
    20    12    13    1
    21    13    14    1
    22    14    18    1
    23    18    19    1
    24    19    20    1
    25    20    21   ar
    26    21    22   ar
    27    22    23   ar
    28    23    24    1
    29    23    25   ar
    30    25    26   ar
    31    14    15    1
    32    15    16    1
    33    16    17    2
    34     9    10    1
    35    31    32    1
    36    32    33    1
    37    33    28    1
    38     6     1   ar
    39    16    11   am
    40    10     4    1
    41    26    20   ar
@<TRIPOS>MOLECULE
*****
 37 41 0 0 0
SMALL
GASTEIGER

@<TRIPOS>ATOM
      1 C         140.6624  146.0017  155.7997 C.ar    1  UNL1       -0.0065
      2 C         139.9728  146.2865  157.1010 C.ar    1  UNL1       -0.0033
      3 C         140.4001  145.5714  158.3484 C.ar    1  UNL1       -0.0048
      4 C         141.5171  144.5717  158.2946 C.ar    1  UNL1       -0.0245
      5 C         142.2067  144.2869  156.9933 C.ar    1  UNL1       -0.0263
      6 C         141.7793  145.0019  155.7459 C.ar    1  UNL1       -0.0075
      7 C         143.3236  143.2871  156.9395 C.3     1  UNL1        0.0277
      8 C         143.7509  142.5721  158.1869 C.3     1  UNL1        0.0248
      9 C         143.0613  142.8568  159.4882 C.3     1  UNL1        0.0801
     10 C         141.9444  143.8566  159.5421 C.3     1  UNL1        0.0458
     11 N         143.4886  142.1418  160.7356 N.am    1  UNL1       -0.2783
     12 C         144.4525  142.7947  161.6816 C.3     1  UNL1        0.1107
     13 C         144.8798  142.0797  162.9290 C.3     1  UNL1        0.0942
     14 N         144.3433  140.7118  163.2306 N.3     1  UNL1       -0.2632
     15 C         143.3795  140.0588  162.2847 C.3     1  UNL1        0.1587
     16 C         142.9521  140.7739  161.0372 C.2     1  UNL1        0.2420
     17 O         141.9883  140.1209  160.0913 O.2     1  UNL1       -0.2734
     18 C         144.7706  139.9967  164.4780 C.3     1  UNL1        0.0773
     19 C         143.9167  138.9013  165.0445 C.3     1  UNL1        0.0437
     20 C         142.7249  139.2405  165.8897 C.ar    1  UNL1       -0.0206
     21 C         142.9060  139.5809  167.3393 C.ar    1  UNL1       -0.0019
     22 C         141.7141  139.9201  168.1847 C.ar    1  UNL1        0.0293
     23 C         140.3412  139.9189  167.5804 C.ar    1  UNL1        0.1401
     24 F         139.1495  140.2581  168.4256 F       1  UNL1       -0.2042
     25 C         140.1602  139.5785  166.1307 C.ar    1  UNL1        0.0293
     26 C         141.3520  139.2393  165.2854 C.ar    1  UNL1       -0.0019
     27 C         140.2351  146.7167  154.5522 C.3     1  UNL1        0.0992
     28 N         139.0586  151.0563  154.7370 N.3     1  UNL1       -0.1565
     29 C         138.4750  150.0788  155.7137 C.3     1  UNL1        0.1128
     30 C         138.8672  148.6322  155.6521 C.3     1  UNL1        0.0917
     31 N         139.8429  148.1632  154.6138 N.3     1  UNL1       -0.2664
     32 C         140.4265  149.1408  153.6371 C.3     1  UNL1        0.0917
     33 C         140.0343  150.5873  153.6987 C.3     1  UNL1        0.1128
     34 C         138.2742  153.9493  154.8602 C.3     1  UNL1        0.1960
     35 S         138.6664  152.5028  154.7986 S.O2    1  UNL1        0.0457
     36 O         138.9434  152.5151  156.2727 O.2     1  UNL1       -0.1572
     37 O         138.3894  152.4904  153.3245 O.2     1  UNL1       -0.1572
@<TRIPOS>BOND
     1    34    35    1
     2    35    36    2
     3    35    37    2
     4    35    28    1
     5    28    29    1
     6    29    30    1
     7    30    31    1
     8    31    27    1
     9    27     1    1
    10     1     2   ar
    11     2     3   ar
    12     3     4   ar
    13     4     5   ar
    14     5     6   ar
    15     5     7    1
    16     7     8    1
    17     8     9    1
    18     9    11    1
    19    11    12    1
    20    12    13    1
    21    13    14    1
    22    14    18    1
    23    18    19    1
    24    19    20    1
    25    20    21   ar
    26    21    22   ar
    27    22    23   ar
    28    23    24    1
    29    23    25   ar
    30    25    26   ar
    31    14    15    1
    32    15    16    1
    33    16    17    2
    34     9    10    1
    35    31    32    1
    36    32    33    1
    37    33    28    1
    38     6     1   ar
    39    16    11   am
    40    10     4    1
    41    26    20   ar
