@<TRIPOS>MOLECULE
*****
 31 35 0 0 0
SMALL
GASTEIGER

@<TRIPOS>ATOM
      1 C         138.8787  145.2196  162.5073 C.3     1  UNL1        0.0730
      2 C         141.9541  140.9151  170.6438 C.3     1  UNL1        0.0950
      3 C         141.1166  140.8125  169.4036 C.ar    1  UNL1        0.2062
      4 N         140.9640  141.8719  168.3526 N.ar    1  UNL1       -0.2124
      5 C         140.0377  141.3466  167.2962 C.ar    1  UNL1        0.1143
      6 C         139.5223  141.9497  166.0231 C.ar    1  UNL1       -0.0040
      7 C         138.5871  141.1689  165.1482 C.ar    1  UNL1       -0.0231
      8 C         138.1672  139.7850  165.5462 C.ar    1  UNL1       -0.0013
      9 C         138.6826  139.1818  166.8192 C.ar    1  UNL1        0.0388
     10 C         139.6178  139.9627  167.6942 C.ar    1  UNL1        0.1640
     11 O         140.2846  139.6326  168.9967 O.2     1  UNL1       -0.4384
     12 C         137.9608  141.5790  163.8483 C.3     1  UNL1        0.0434
     13 C         138.1152  142.8713  163.1024 C.3     1  UNL1        0.0768
     14 N         138.9338  144.0724  163.4721 N.3     1  UNL1       -0.2720
     15 C         139.8004  144.2782  164.6791 C.3     1  UNL1        0.0769
     16 C         140.0623  143.3335  165.8144 C.3     1  UNL1        0.0450
     17 C         140.1394  145.7265  161.8718 C.3     1  UNL1        0.0294
     18 C         140.6291  145.1211  160.5898 C.3     1  UNL1        0.0666
     19 S         141.8183  144.2070  160.5982 S.3     1  UNL1       -0.0756
     20 C         141.9587  143.1689  161.6717 C.ar    1  UNL1        0.1933
     21 N         142.7682  143.3030  162.9274 N.ar    1  UNL1       -0.1220
     22 N         142.6241  142.0314  163.7099 N.ar    1  UNL1       -0.1250
     23 C         141.7256  141.1113  162.9377 C.ar    1  UNL1        0.2029
     24 N         141.3143  141.8144  161.6781 N.ar    1  UNL1       -0.2860
     25 C         140.4164  141.2601  160.6120 C.3     1  UNL1        0.1341
     26 C         141.3110  139.7307  163.3524 C.ar    1  UNL1        0.1964
     27 O         140.3567  138.8382  162.6160 O.2     1  UNL1       -0.4283
     28 C         140.2339  137.5560  163.3847 C.ar    1  UNL1        0.2849
     29 N         141.1124  137.6561  164.5964 N.ar    1  UNL1       -0.2085
     30 C         141.7782  139.0002  164.5764 C.ar    1  UNL1        0.1001
     31 C         142.7419  139.5220  165.6006 C.3     1  UNL1        0.0556
@<TRIPOS>BOND
     1     2     3    1
     2     3     4   ar
     3     4     5   ar
     4     5     6   ar
     5     6     7   ar
     6     7     8   ar
     7     8     9   ar
     8     9    10   ar
     9    10    11   ar
    10     7    12    1
    11    12    13    1
    12    13    14    1
    13    14     1    1
    14     1    17    1
    15    17    18    1
    16    18    19    1
    17    19    20    1
    18    20    21   ar
    19    21    22   ar
    20    22    23   ar
    21    23    26    1
    22    26    27   ar
    23    27    28   ar
    24    28    29   ar
    25    29    30   ar
    26    30    31    1
    27    23    24   ar
    28    24    25    1
    29    14    15    1
    30    15    16    1
    31    11     3   ar
    32    24    20   ar
    33    10     5   ar
    34    30    26   ar
    35    16     6    1
@<TRIPOS>MOLECULE
*****
 31 35 0 0 0
SMALL
GASTEIGER

@<TRIPOS>ATOM
      1 C         138.6462  137.9546  161.5772 C.3     1  UNL1        0.0730
      2 C         139.9886  142.3611  170.1195 C.3     1  UNL1        0.0950
      3 C         140.5400  141.4266  169.0838 C.ar    1  UNL1        0.2062
      4 N         139.8651  141.0318  167.8037 N.ar    1  UNL1       -0.2124
      5 C         140.7711  140.0841  167.0752 C.ar    1  UNL1        0.1143
      6 C         140.6313  139.3702  165.7633 C.ar    1  UNL1       -0.0040
      7 C         141.7262  138.4655  165.2813 C.ar    1  UNL1       -0.0231
      8 C         142.9611  138.2745  166.1111 C.ar    1  UNL1       -0.0013
      9 C         143.1011  138.9883  167.4229 C.ar    1  UNL1        0.0388
     10 C         142.0061  139.8931  167.9050 C.ar    1  UNL1        0.1640
     11 O         141.8632  140.7229  169.1464 O.2     1  UNL1       -0.4384
     12 C         141.7884  137.6653  164.0140 C.3     1  UNL1        0.0434
     13 C         140.7708  137.5723  162.9158 C.3     1  UNL1        0.0768
     14 N         139.4400  138.2565  162.8137 N.3     1  UNL1       -0.2720
     15 C         138.7977  139.2026  163.7845 C.3     1  UNL1        0.0769
     16 C         139.3279  139.6983  165.0972 C.3     1  UNL1        0.0450
     17 C         137.3633  138.6855  161.3124 C.3     1  UNL1        0.0294
     18 C         137.3392  139.8326  160.3462 C.3     1  UNL1        0.0666
     19 S         138.6257  140.4396  159.8706 S.3     1  UNL1       -0.0756
     20 C         139.1455  141.6927  160.5107 C.ar    1  UNL1        0.1933
     21 N         138.4497  143.0212  160.5411 N.ar    1  UNL1       -0.1220
     22 N         139.3264  143.9869  161.2819 N.ar    1  UNL1       -0.1250
     23 C         140.5641  143.2551  161.7093 C.ar    1  UNL1        0.2029
     24 N         140.4523  141.8372  161.2327 N.ar    1  UNL1       -0.2860
     25 C         141.4689  140.7542  161.4415 C.3     1  UNL1        0.1341
     26 C         141.7121  143.8388  162.4784 C.ar    1  UNL1        0.1964
     27 O         142.8952  144.5504  161.8921 O.2     1  UNL1       -0.4283
     28 C         143.7929  144.9647  163.0201 C.ar    1  UNL1        0.2849
     29 N         143.1645  144.5092  164.3037 N.ar    1  UNL1       -0.2085
     30 C         141.8785  143.8133  163.9689 C.ar    1  UNL1        0.1001
     31 C         140.9262  143.1998  164.9521 C.3     1  UNL1        0.0556
@<TRIPOS>BOND
     1     2     3    1
     2     3     4   ar
     3     4     5   ar
     4     5     6   ar
     5     6     7   ar
     6     7     8   ar
     7     8     9   ar
     8     9    10   ar
     9    10    11   ar
    10     7    12    1
    11    12    13    1
    12    13    14    1
    13    14     1    1
    14     1    17    1
    15    17    18    1
    16    18    19    1
    17    19    20    1
    18    20    21   ar
    19    21    22   ar
    20    22    23   ar
    21    23    26    1
    22    26    27   ar
    23    27    28   ar
    24    28    29   ar
    25    29    30   ar
    26    30    31    1
    27    23    24   ar
    28    24    25    1
    29    14    15    1
    30    15    16    1
    31    11     3   ar
    32    24    20   ar
    33    10     5   ar
    34    30    26   ar
    35    16     6    1
@<TRIPOS>MOLECULE
*****
 31 35 0 0 0
SMALL
GASTEIGER

@<TRIPOS>ATOM
      1 C         143.3320  138.0113  161.6974 C.3     1  UNL1        0.0730
      2 C         140.7965  142.1357  170.1087 C.3     1  UNL1        0.0950
      3 C         140.4092  141.2138  168.9906 C.ar    1  UNL1        0.2062
      4 N         141.2500  140.8756  167.7953 N.ar    1  UNL1       -0.2124
      5 C         140.4736  139.9211  166.9375 C.ar    1  UNL1        0.1143
      6 C         140.7984  139.2485  165.6366 C.ar    1  UNL1       -0.0040
      7 C         139.8027  138.3244  165.0010 C.ar    1  UNL1       -0.0231
      8 C         138.4820  138.0726  165.6660 C.ar    1  UNL1       -0.0013
      9 C         138.1570  138.7451  166.9668 C.ar    1  UNL1        0.0388
     10 C         139.1528  139.6693  167.6026 C.ar    1  UNL1        0.1640
     11 O         139.1131  140.4683  168.8715 O.2     1  UNL1       -0.4384
     12 C         139.9246  137.5581  163.7171 C.3     1  UNL1        0.0434
     13 C         141.0726  137.5270  162.7520 C.3     1  UNL1        0.0768
     14 N         142.3819  138.2543  162.8324 N.3     1  UNL1       -0.2720
     15 C         142.8669  139.1924  163.8976 C.3     1  UNL1        0.0769
     16 C         142.1622  139.6349  165.1457 C.3     1  UNL1        0.0450
     17 C         144.0529  139.1637  161.0629 C.3     1  UNL1        0.0294
     18 C         143.7244  139.5716  159.6573 C.3     1  UNL1        0.0666
     19 S         142.8662  140.7761  159.4070 S.3     1  UNL1       -0.0756
     20 C         142.6898  141.8077  160.4816 C.ar    1  UNL1        0.1933
     21 N         143.6246  142.9434  160.7755 N.ar    1  UNL1       -0.1220
     22 N         143.0602  143.7223  161.9264 N.ar    1  UNL1       -0.1250
     23 C         141.7766  143.0680  162.3438 C.ar    1  UNL1        0.2029
     24 N         141.5477  141.8847  161.4509 N.ar    1  UNL1       -0.2860
     25 C         140.3814  140.9437  161.5159 C.3     1  UNL1        0.1341
     26 C         140.8794  143.5181  163.4585 C.ar    1  UNL1        0.1964
     27 O         140.6814  142.8158  164.7690 O.2     1  UNL1       -0.4283
     28 C         139.7023  143.6131  165.5789 C.ar    1  UNL1        0.2849
     29 N         139.2952  144.8081  164.7688 N.ar    1  UNL1       -0.2085
     30 C         140.0228  144.7494  163.4583 C.ar    1  UNL1        0.1001
     31 C         139.9128  145.7469  162.3435 C.3     1  UNL1        0.0556
@<TRIPOS>BOND
     1     2     3    1
     2     3     4   ar
     3     4     5   ar
     4     5     6   ar
     5     6     7   ar
     6     7     8   ar
     7     8     9   ar
     8     9    10   ar
     9    10    11   ar
    10     7    12    1
    11    12    13    1
    12    13    14    1
    13    14     1    1
    14     1    17    1
    15    17    18    1
    16    18    19    1
    17    19    20    1
    18    20    21   ar
    19    21    22   ar
    20    22    23   ar
    21    23    26    1
    22    26    27   ar
    23    27    28   ar
    24    28    29   ar
    25    29    30   ar
    26    30    31    1
    27    23    24   ar
    28    24    25    1
    29    14    15    1
    30    15    16    1
    31    11     3   ar
    32    24    20   ar
    33    10     5   ar
    34    30    26   ar
    35    16     6    1
@<TRIPOS>MOLECULE
*****
 31 35 0 0 0
SMALL
GASTEIGER

@<TRIPOS>ATOM
      1 C         141.0278  138.6063  160.3771 C.3     1  UNL1        0.0730
      2 C         141.1695  142.9774  169.0410 C.3     1  UNL1        0.0950
      3 C         140.5837  141.8922  168.1871 C.ar    1  UNL1        0.2062
      4 N         140.9397  141.6055  166.7584 N.ar    1  UNL1       -0.2124
      5 C         140.1150  140.4393  166.3003 C.ar    1  UNL1        0.1143
      6 C         140.0405  139.7165  164.9880 C.ar    1  UNL1       -0.0040
      7 C         139.1004  138.5597  164.8213 C.ar    1  UNL1       -0.0231
      8 C         138.2347  138.1256  165.9667 C.ar    1  UNL1       -0.0013
      9 C         138.3092  138.8483  167.2790 C.ar    1  UNL1        0.0388
     10 C         139.2494  140.0052  167.4458 C.ar    1  UNL1        0.1640
     11 O         139.5390  140.9031  168.6119 O.2     1  UNL1       -0.4384
     12 C         138.8713  137.7080  163.6079 C.3     1  UNL1        0.0434
     13 C         139.5259  137.8030  162.2615 C.3     1  UNL1        0.0768
     14 N         140.5710  138.7729  161.7961 N.3     1  UNL1       -0.2720
     15 C         141.2199  139.8876  162.5620 C.3     1  UNL1        0.0769
     16 C         140.9838  140.3075  163.9825 C.3     1  UNL1        0.0450
     17 C         140.5731  139.5732  159.3242 C.3     1  UNL1        0.0294
     18 C         139.1842  139.4759  158.7661 C.3     1  UNL1        0.0666
     19 S         138.2429  140.6371  158.8905 S.3     1  UNL1       -0.0756
     20 C         138.6075  141.8091  159.7527 C.ar    1  UNL1        0.1933
     21 N         139.3022  143.0575  159.2957 N.ar    1  UNL1       -0.1220
     22 N         139.4655  143.9585  160.4838 N.ar    1  UNL1       -0.1250
     23 C         138.8717  143.2669  161.6751 C.ar    1  UNL1        0.2029
     24 N         138.3414  141.9385  161.2232 N.ar    1  UNL1       -0.2860
     25 C         137.6640  140.9186  162.0898 C.3     1  UNL1        0.1341
     26 C         138.8177  143.8086  163.0728 C.ar    1  UNL1        0.1964
     27 O         137.5738  144.1445  163.8407 O.2     1  UNL1       -0.4283
     28 C         137.9854  144.6530  165.1906 C.ar    1  UNL1        0.2849
     29 N         139.4837  144.6313  165.2569 N.ar    1  UNL1       -0.2085
     30 C         139.9981  144.1095  163.9480 C.ar    1  UNL1        0.1001
     31 C         141.4399  143.9215  163.5792 C.3     1  UNL1        0.0556
@<TRIPOS>BOND
     1     2     3    1
     2     3     4   ar
     3     4     5   ar
     4     5     6   ar
     5     6     7   ar
     6     7     8   ar
     7     8     9   ar
     8     9    10   ar
     9    10    11   ar
    10     7    12    1
    11    12    13    1
    12    13    14    1
    13    14     1    1
    14     1    17    1
    15    17    18    1
    16    18    19    1
    17    19    20    1
    18    20    21   ar
    19    21    22   ar
    20    22    23   ar
    21    23    26    1
    22    26    27   ar
    23    27    28   ar
    24    28    29   ar
    25    29    30   ar
    26    30    31    1
    27    23    24   ar
    28    24    25    1
    29    14    15    1
    30    15    16    1
    31    11     3   ar
    32    24    20   ar
    33    10     5   ar
    34    30    26   ar
    35    16     6    1
@<TRIPOS>MOLECULE
*****
 31 35 0 0 0
SMALL
GASTEIGER

@<TRIPOS>ATOM
      1 C         137.7846  138.1266  161.8910 C.3     1  UNL1        0.0730
      2 C         140.3725  141.9698  170.4187 C.3     1  UNL1        0.0950
      3 C         140.7728  141.1294  169.2424 C.ar    1  UNL1        0.2062
      4 N         139.9113  140.8019  168.0589 N.ar    1  UNL1       -0.2124
      5 C         140.7109  139.9392  167.1282 C.ar    1  UNL1        0.1143
      6 C         140.3797  139.3142  165.8053 C.ar    1  UNL1       -0.0040
      7 C         141.4042  138.4837  165.0909 C.ar    1  UNL1       -0.0231
      8 C         142.7598  138.2780  165.6990 C.ar    1  UNL1       -0.0013
      9 C         143.0910  138.9029  167.0218 C.ar    1  UNL1        0.0388
     10 C         142.0666  139.7335  167.7364 C.ar    1  UNL1        0.1640
     11 O         142.1048  140.4692  169.0431 O.2     1  UNL1       -0.4384
     12 C         141.2815  137.7765  163.7736 C.3     1  UNL1        0.0434
     13 C         140.1040  137.7254  162.8457 C.3     1  UNL1        0.0768
     14 N         138.7585  138.3686  163.0058 N.3     1  UNL1       -0.2720
     15 C         138.2580  139.2220  164.1334 C.3     1  UNL1        0.0769
     16 C         138.9795  139.6428  165.3793 C.3     1  UNL1        0.0450
     17 C         137.4382  139.2366  160.9434 C.3     1  UNL1        0.0294
     18 C         138.5002  139.8364  160.0703 C.3     1  UNL1        0.0666
     19 S         138.9523  141.2478  160.3013 S.3     1  UNL1       -0.0756
     20 C         139.8760  141.5625  161.4405 C.ar    1  UNL1        0.1933
     21 N         139.4975  142.2523  162.7176 N.ar    1  UNL1       -0.1220
     22 N         140.7278  142.3589  163.5691 N.ar    1  UNL1       -0.1250
     23 C         141.8666  141.7349  162.8182 C.ar    1  UNL1        0.2029
     24 N         141.3401  141.2428  161.5027 N.ar    1  UNL1       -0.2860
     25 C         142.1378  140.5521  160.4365 C.3     1  UNL1        0.1341
     26 C         143.2832  141.6228  163.2985 C.ar    1  UNL1        0.1964
     27 O         144.0543  140.3492  163.4804 O.2     1  UNL1       -0.4283
     28 C         145.4251  140.7039  163.9756 C.ar    1  UNL1        0.2849
     29 N         145.5012  142.1968  164.0998 N.ar    1  UNL1       -0.2085
     30 C         144.1774  142.7647  163.6813 C.ar    1  UNL1        0.1001
     31 C         143.8120  144.2193  163.6510 C.3     1  UNL1        0.0556
@<TRIPOS>BOND
     1     2     3    1
     2     3     4   ar
     3     4     5   ar
     4     5     6   ar
     5     6     7   ar
     6     7     8   ar
     7     8     9   ar
     8     9    10   ar
     9    10    11   ar
    10     7    12    1
    11    12    13    1
    12    13    14    1
    13    14     1    1
    14     1    17    1
    15    17    18    1
    16    18    19    1
    17    19    20    1
    18    20    21   ar
    19    21    22   ar
    20    22    23   ar
    21    23    26    1
    22    26    27   ar
    23    27    28   ar
    24    28    29   ar
    25    29    30   ar
    26    30    31    1
    27    23    24   ar
    28    24    25    1
    29    14    15    1
    30    15    16    1
    31    11     3   ar
    32    24    20   ar
    33    10     5   ar
    34    30    26   ar
    35    16     6    1
@<TRIPOS>MOLECULE
*****
 31 35 0 0 0
SMALL
GASTEIGER

@<TRIPOS>ATOM
      1 C         141.0717  145.1017  161.2522 C.3     1  UNL1        0.0730
      2 C         144.1231  137.7219  166.7674 C.3     1  UNL1        0.0950
      3 C         143.2689  138.9510  166.6680 C.ar    1  UNL1        0.2062
      4 N         143.1329  139.8351  165.4638 N.ar    1  UNL1       -0.2124
      5 C         142.1808  140.9422  165.8069 C.ar    1  UNL1        0.1143
      6 C         141.6672  142.1066  165.0128 C.ar    1  UNL1       -0.0040
      7 C         140.7014  143.0709  165.6348 C.ar    1  UNL1       -0.0231
      8 C         140.2489  142.8711  167.0508 C.ar    1  UNL1       -0.0013
      9 C         140.7624  141.7068  167.8450 C.ar    1  UNL1        0.0388
     10 C         141.7284  140.7423  167.2231 C.ar    1  UNL1        0.1640
     11 O         142.4009  139.5117  167.7552 O.2     1  UNL1       -0.4384
     12 C         140.0715  144.2881  165.0249 C.3     1  UNL1        0.0434
     13 C         140.2521  144.8413  163.6423 C.3     1  UNL1        0.0768
     14 N         141.1069  144.3141  162.5283 N.3     1  UNL1       -0.2720
     15 C         141.9925  143.1034  162.5216 C.3     1  UNL1        0.0769
     16 C         142.2419  142.1210  163.6273 C.3     1  UNL1        0.0450
     17 C         141.3233  144.4175  159.9413 C.3     1  UNL1        0.0294
     18 C         140.2012  144.2355  158.9626 C.3     1  UNL1        0.0666
     19 S         139.3680  142.9889  159.0002 S.3     1  UNL1       -0.0756
     20 C         138.8493  142.4727  160.3097 C.ar    1  UNL1        0.1933
     21 N         137.7637  143.0967  161.1356 N.ar    1  UNL1       -0.1220
     22 N         137.5686  142.2516  162.3594 N.ar    1  UNL1       -0.1250
     23 C         138.5336  141.1054  162.2899 C.ar    1  UNL1        0.2029
     24 N         139.3252  141.2421  161.0230 N.ar    1  UNL1       -0.2860
     25 C         140.4033  140.3114  160.5523 C.3     1  UNL1        0.1341
     26 C         138.6813  140.0141  163.3084 C.ar    1  UNL1        0.1964
     27 O         139.0764  140.1955  164.7439 O.2     1  UNL1       -0.4283
     28 C         139.0991  138.8433  165.3929 C.ar    1  UNL1        0.2849
     29 N         138.7178  137.8262  164.3584 N.ar    1  UNL1       -0.2085
     30 C         138.4596  138.5499  163.0700 C.ar    1  UNL1        0.1001
     31 C         138.0514  137.9197  161.7714 C.3     1  UNL1        0.0556
@<TRIPOS>BOND
     1     2     3    1
     2     3     4   ar
     3     4     5   ar
     4     5     6   ar
     5     6     7   ar
     6     7     8   ar
     7     8     9   ar
     8     9    10   ar
     9    10    11   ar
    10     7    12    1
    11    12    13    1
    12    13    14    1
    13    14     1    1
    14     1    17    1
    15    17    18    1
    16    18    19    1
    17    19    20    1
    18    20    21   ar
    19    21    22   ar
    20    22    23   ar
    21    23    26    1
    22    26    27   ar
    23    27    28   ar
    24    28    29   ar
    25    29    30   ar
    26    30    31    1
    27    23    24   ar
    28    24    25    1
    29    14    15    1
    30    15    16    1
    31    11     3   ar
    32    24    20   ar
    33    10     5   ar
    34    30    26   ar
    35    16     6    1
@<TRIPOS>MOLECULE
*****
 31 35 0 0 0
SMALL
GASTEIGER

@<TRIPOS>ATOM
      1 C         138.6782  142.8693  158.3381 C.3     1  UNL1        0.0730
      2 C         137.7479  138.5944  167.0012 C.3     1  UNL1        0.0950
      3 C         138.4502  138.6156  165.6759 C.ar    1  UNL1        0.2062
      4 N         138.1985  139.5860  164.5601 N.ar    1  UNL1       -0.2124
      5 C         139.1202  139.2402  163.4283 C.ar    1  UNL1        0.1143
      6 C         139.3178  139.8505  162.0724 C.ar    1  UNL1       -0.0040
      7 C         140.3365  139.2768  161.1329 C.ar    1  UNL1       -0.0231
      8 C         141.1578  138.0926  161.5491 C.ar    1  UNL1       -0.0013
      9 C         140.9603  137.4822  162.9050 C.ar    1  UNL1        0.0388
     10 C         139.9415  138.0560  163.8446 C.ar    1  UNL1        0.1640
     11 O         139.5274  137.6700  165.2337 O.2     1  UNL1       -0.4384
     12 C         140.6902  139.7290  159.7471 C.3     1  UNL1        0.0434
     13 C         140.1124  140.8669  158.9586 C.3     1  UNL1        0.0768
     14 N         139.0383  141.8333  159.3612 N.3     1  UNL1       -0.2720
     15 C         138.2766  141.9007  160.6517 C.3     1  UNL1        0.0769
     16 C         138.4010  141.0183  161.8583 C.3     1  UNL1        0.0450
     17 C         139.7495  143.4951  157.4950 C.3     1  UNL1        0.0294
     18 C         140.1337  144.9287  157.7126 C.3     1  UNL1        0.0666
     19 S         141.0295  145.2996  158.8571 S.3     1  UNL1       -0.0756
     20 C         140.5179  145.2239  160.2651 C.ar    1  UNL1        0.1933
     21 N         139.4557  146.0965  160.8653 N.ar    1  UNL1       -0.1220
     22 N         139.2599  145.6743  162.2912 N.ar    1  UNL1       -0.1250
     23 C         140.2011  144.5406  162.5723 C.ar    1  UNL1        0.2029
     24 N         140.9786  144.2622  161.3201 N.ar    1  UNL1       -0.2860
     25 C         142.0318  143.2075  161.1524 C.3     1  UNL1        0.1341
     26 C         140.3403  143.8131  163.8766 C.ar    1  UNL1        0.1964
     27 O         141.6302  143.4587  164.5552 O.2     1  UNL1       -0.4283
     28 C         141.3012  142.7387  165.8294 C.ar    1  UNL1        0.2849
     29 N         139.8080  142.6482  165.9383 N.ar    1  UNL1       -0.2085
     30 C         139.2141  143.3122  164.7314 C.ar    1  UNL1        0.1001
     31 C         137.7508  143.4508  164.4320 C.3     1  UNL1        0.0556
@<TRIPOS>BOND
     1     2     3    1
     2     3     4   ar
     3     4     5   ar
     4     5     6   ar
     5     6     7   ar
     6     7     8   ar
     7     8     9   ar
     8     9    10   ar
     9    10    11   ar
    10     7    12    1
    11    12    13    1
    12    13    14    1
    13    14     1    1
    14     1    17    1
    15    17    18    1
    16    18    19    1
    17    19    20    1
    18    20    21   ar
    19    21    22   ar
    20    22    23   ar
    21    23    26    1
    22    26    27   ar
    23    27    28   ar
    24    28    29   ar
    25    29    30   ar
    26    30    31    1
    27    23    24   ar
    28    24    25    1
    29    14    15    1
    30    15    16    1
    31    11     3   ar
    32    24    20   ar
    33    10     5   ar
    34    30    26   ar
    35    16     6    1
@<TRIPOS>MOLECULE
*****
 31 35 0 0 0
SMALL
GASTEIGER

@<TRIPOS>ATOM
      1 C         143.4963  137.9798  161.7657 C.3     1  UNL1        0.0730
      2 C         140.8340  141.9293  170.2217 C.3     1  UNL1        0.0950
      3 C         140.4495  141.0613  169.0603 C.ar    1  UNL1        0.2062
      4 N         141.3177  140.7276  167.8835 N.ar    1  UNL1       -0.2124
      5 C         140.5340  139.8347  166.9678 C.ar    1  UNL1        0.1143
      6 C         140.8772  139.1920  165.6565 C.ar    1  UNL1       -0.0040
      7 C         139.8680  138.3312  164.9563 C.ar    1  UNL1       -0.0231
      8 C         138.5156  138.1130  165.5672 C.ar    1  UNL1       -0.0013
      9 C         138.1723  138.7556  166.8784 C.ar    1  UNL1        0.0388
     10 C         139.1815  139.6164  167.5787 C.ar    1  UNL1        0.1640
     11 O         139.1293  140.3745  168.8720 O.2     1  UNL1       -0.4384
     12 C         140.0042  137.6029  163.6520 C.3     1  UNL1        0.0434
     13 C         141.1833  137.5556  162.7259 C.3     1  UNL1        0.0768
     14 N         142.5172  138.2249  162.8754 N.3     1  UNL1       -0.2720
     15 C         143.0018  139.1068  163.9878 C.3     1  UNL1        0.0769
     16 C         142.2719  139.5372  165.2256 C.3     1  UNL1        0.0450
     17 C         143.6192  138.9664  160.6424 C.3     1  UNL1        0.0294
     18 C         142.9959  138.6686  159.3109 C.3     1  UNL1        0.0666
     19 S         141.9501  139.5861  158.7503 S.3     1  UNL1       -0.0756
     20 C         140.9191  140.1908  159.6567 C.ar    1  UNL1        0.1933
     21 N         139.6675  139.5198  160.1398 N.ar    1  UNL1       -0.1220
     22 N         138.9335  140.4869  161.0207 N.ar    1  UNL1       -0.1250
     23 C         139.7314  141.7556  161.0820 C.ar    1  UNL1        0.2029
     24 N         140.9586  141.5726  160.2389 N.ar    1  UNL1       -0.2860
     25 C         142.0360  142.5924  160.0172 C.3     1  UNL1        0.1341
     26 C         139.3663  142.9905  161.8512 C.ar    1  UNL1        0.1964
     27 O         139.3814  144.3945  161.3236 O.2     1  UNL1       -0.4283
     28 C         138.9464  145.3099  162.4295 C.ar    1  UNL1        0.2849
     29 N         138.6625  144.4716  163.6405 N.ar    1  UNL1       -0.2085
     30 C         138.9221  143.0381  163.2831 C.ar    1  UNL1        0.1001
     31 C         138.7649  141.8592  164.1972 C.3     1  UNL1        0.0556
@<TRIPOS>BOND
     1     2     3    1
     2     3     4   ar
     3     4     5   ar
     4     5     6   ar
     5     6     7   ar
     6     7     8   ar
     7     8     9   ar
     8     9    10   ar
     9    10    11   ar
    10     7    12    1
    11    12    13    1
    12    13    14    1
    13    14     1    1
    14     1    17    1
    15    17    18    1
    16    18    19    1
    17    19    20    1
    18    20    21   ar
    19    21    22   ar
    20    22    23   ar
    21    23    26    1
    22    26    27   ar
    23    27    28   ar
    24    28    29   ar
    25    29    30   ar
    26    30    31    1
    27    23    24   ar
    28    24    25    1
    29    14    15    1
    30    15    16    1
    31    11     3   ar
    32    24    20   ar
    33    10     5   ar
    34    30    26   ar
    35    16     6    1
@<TRIPOS>MOLECULE
*****
 31 35 0 0 0
SMALL
GASTEIGER

@<TRIPOS>ATOM
      1 C         144.1868  142.4454  160.1382 C.3     1  UNL1        0.0730
      2 C         138.0619  138.8485  166.7517 C.3     1  UNL1        0.0950
      3 C         139.2922  139.6647  166.4865 C.ar    1  UNL1        0.2062
      4 N         139.8866  139.9515  165.1394 N.ar    1  UNL1       -0.2124
      5 C         141.1057  140.8014  165.3422 C.ar    1  UNL1        0.1143
      6 C         142.0916  141.3891  164.3763 C.ar    1  UNL1       -0.0040
      7 C         143.2366  142.2151  164.8829 C.ar    1  UNL1       -0.0231
      8 C         143.3958  142.4536  166.3552 C.ar    1  UNL1       -0.0013
      9 C         142.4100  141.8659  167.3211 C.ar    1  UNL1        0.0388
     10 C         141.2650  141.0399  166.8146 C.ar    1  UNL1        0.1640
     11 O         140.1441  140.3373  167.5217 O.2     1  UNL1       -0.4384
     12 C         144.3237  142.8878  164.0981 C.3     1  UNL1        0.0434
     13 C         144.5341  142.9005  162.6129 C.3     1  UNL1        0.0768
     14 N         143.7096  142.2438  161.5459 N.3     1  UNL1       -0.2720
     15 C         142.4709  141.4120  161.7003 C.3     1  UNL1        0.0769
     16 C         141.7508  141.0317  162.9600 C.3     1  UNL1        0.0450
     17 C         143.2023  142.4543  159.0064 C.3     1  UNL1        0.0294
     18 C         143.0175  143.6944  158.1829 C.3     1  UNL1        0.0666
     19 S         141.8252  144.5753  158.4110 S.3     1  UNL1       -0.0756
     20 C         140.6631  144.0715  159.2146 C.ar    1  UNL1        0.1933
     21 N         139.4799  143.3211  158.6789 N.ar    1  UNL1       -0.1220
     22 N         138.5657  143.0154  159.8281 N.ar    1  UNL1       -0.1250
     23 C         139.1840  143.5767  161.0742 C.ar    1  UNL1        0.2029
     24 N         140.4802  144.2295  160.6950 N.ar    1  UNL1       -0.2860
     25 C         141.4273  144.9191  161.6318 C.3     1  UNL1        0.1341
     26 C         138.6072  143.4991  162.4567 C.ar    1  UNL1        0.1964
     27 O         138.5588  144.6167  163.4559 O.2     1  UNL1       -0.4283
     28 C         137.8993  144.0985  164.6995 C.ar    1  UNL1        0.2849
     29 N         137.5401  142.6605  164.4688 N.ar    1  UNL1       -0.2085
     30 C         137.9776  142.2900  163.0827 C.ar    1  UNL1        0.1001
     31 C         137.8143  140.9464  162.4361 C.3     1  UNL1        0.0556
@<TRIPOS>BOND
     1     2     3    1
     2     3     4   ar
     3     4     5   ar
     4     5     6   ar
     5     6     7   ar
     6     7     8   ar
     7     8     9   ar
     8     9    10   ar
     9    10    11   ar
    10     7    12    1
    11    12    13    1
    12    13    14    1
    13    14     1    1
    14     1    17    1
    15    17    18    1
    16    18    19    1
    17    19    20    1
    18    20    21   ar
    19    21    22   ar
    20    22    23   ar
    21    23    26    1
    22    26    27   ar
    23    27    28   ar
    24    28    29   ar
    25    29    30   ar
    26    30    31    1
    27    23    24   ar
    28    24    25    1
    29    14    15    1
    30    15    16    1
    31    11     3   ar
    32    24    20   ar
    33    10     5   ar
    34    30    26   ar
    35    16     6    1
