@<TRIPOS>MOLECULE
*****
 40 42 0 0 0
SMALL
GASTEIGER

@<TRIPOS>ATOM
      1 C         139.3837  139.4523  160.5018 C.ar    1  UNL1        0.0597
      2 C         139.2914  138.5609  161.7047 C.ar    1  UNL1        0.0423
      3 C         138.6167  139.0512  162.9514 C.ar    1  UNL1        0.1504
      4 C         138.0343  140.4329  162.9952 C.ar    1  UNL1        0.0744
      5 C         138.1267  141.3242  161.7924 C.ar    1  UNL1        0.1416
      6 C         138.8014  140.8339  160.5457 C.ar    1  UNL1        0.0416
      7 N         141.5405  138.7310  159.2455 N.am    1  UNL1       -0.2644
      8 C         140.0585  138.9620  159.2550 C.2     1  UNL1        0.2508
      9 O         139.2511  138.7027  158.0177 O.2     1  UNL1       -0.2698
     10 H         142.0704  138.9011  160.0576 H       1  UNL1        0.1566
     11 N         143.1595  136.7779  156.3079 N.ar    1  UNL1       -0.2357
     12 C         143.3475  138.1947  155.8525 C.ar    1  UNL1        0.0988
     13 C         142.7639  139.0988  156.8976 C.ar    1  UNL1        0.0565
     14 C         142.2152  138.2407  157.9987 C.ar    1  UNL1        0.1557
     15 N         142.4597  136.8063  157.6343 N.ar    1  UNL1       -0.1534
     16 C         143.5948  135.5486  155.5669 C.3     1  UNL1        0.2423
     17 P         142.9088  134.2386  155.8188 P.3     1  UNL1        0.3677
     18 O         142.2229  132.9287  156.0707 O.2     1  UNL1       -0.2557
     19 O         141.8223  134.6228  154.8586 O.3     1  UNL1       -0.2928
     20 C         141.1513  134.4513  152.3546 C.3     1  UNL1        0.0352
     21 C         142.1441  134.8398  153.4097 C.3     1  UNL1        0.1515
     22 O         143.9953  133.8544  156.7790 O.3     1  UNL1       -0.2928
     23 C         144.5491  132.4604  156.7662 C.3     1  UNL1        0.1515
     24 C         145.4119  131.9857  157.8977 C.3     1  UNL1        0.0352
     25 O         138.5243  138.1599  164.1543 O.3     1  UNL1       -0.4347
     26 C         138.8022  138.7129  165.5207 C.ar    1  UNL1        0.2494
     27 C         137.8252  138.4836  166.6356 C.ar    1  UNL1        0.1569
     28 N         138.1031  139.0366  168.0019 N.ar    1  UNL1       -0.2328
     29 C         139.3580  139.8190  168.2534 C.ar    1  UNL1        0.1538
     30 C         140.3350  140.0483  167.1385 C.ar    1  UNL1        0.1258
     31 N         140.0570  139.4952  165.7721 N.ar    1  UNL1       -0.2068
     32 C         139.6359  140.3720  169.6197 C.2     1  UNL1        0.2652
     33 O         138.9532  139.7852  170.8195 O.2     1  UNL1       -0.2684
     34 N         140.5966  141.5120  169.7863 N.am    1  UNL1       -0.2979
     35 C         140.8746  142.0650  171.1526 C.3     1  UNL1        0.1110
     36 H         141.0447  141.8971  168.9988 H       1  UNL1        0.1498
     37 O         137.5444  142.7059  161.8362 O.3     1  UNL1       -0.4791
     38 C         138.1715  143.7569  162.7034 C.3     1  UNL1        0.1661
     39 C         139.2953  144.5958  162.1712 C.3     1  UNL1        0.0472
     40 C         137.6748  143.9691  164.1028 C.3     1  UNL1        0.0472
@<TRIPOS>BOND
     1    20    21    1
     2    21    19    1
     3    19    17    1
     4    17    18    2
     5    17    16    1
     6    16    11    1
     7    11    12   ar
     8    12    13   ar
     9    13    14   ar
    10    14     7    1
    11     7     8   am
    12     8     9    2
    13     8     1    1
    14     1     2   ar
    15     2     3   ar
    16     3    25    1
    17    25    26    1
    18    26    27   ar
    19    27    28   ar
    20    28    29   ar
    21    29    32    1
    22    32    33    2
    23    32    34   am
    24    34    35    1
    25    29    30   ar
    26    30    31   ar
    27     3     4   ar
    28     4     5   ar
    29     5    37    1
    30    37    38    1
    31    38    39    1
    32    38    40    1
    33     5     6   ar
    34    14    15   ar
    35    17    22    1
    36    22    23    1
    37    23    24    1
    38    15    11   ar
    39     6     1   ar
    40    31    26   ar
    41     7    10    1
    42    34    36    1
@<TRIPOS>MOLECULE
*****
 40 42 0 0 0
SMALL
GASTEIGER

@<TRIPOS>ATOM
      1 C         139.5260  139.1556  160.4719 C.ar    1  UNL1        0.0597
      2 C         139.4199  138.3087  161.7053 C.ar    1  UNL1        0.0423
      3 C         138.7069  138.8333  162.9162 C.ar    1  UNL1        0.1504
      4 C         138.1001  140.2049  162.8938 C.ar    1  UNL1        0.0744
      5 C         138.2063  141.0519  161.6604 C.ar    1  UNL1        0.1416
      6 C         138.9192  140.5272  160.4494 C.ar    1  UNL1        0.0416
      7 N         141.7356  138.6967  159.1845 N.am    1  UNL1       -0.2644
      8 C         140.2390  138.6310  159.2609 C.2     1  UNL1        0.2508
      9 O         139.4553  138.0407  158.1262 O.2     1  UNL1       -0.2698
     10 H         142.2499  139.0841  159.9292 H       1  UNL1        0.1566
     11 N         143.4433  136.6630  156.3537 N.ar    1  UNL1       -0.2357
     12 C         143.6480  138.0667  155.8661 C.ar    1  UNL1        0.0988
     13 C         143.0331  138.9994  156.8672 C.ar    1  UNL1        0.0565
     14 C         142.4486  138.1721  157.9735 C.ar    1  UNL1        0.1557
     15 N         142.7021  136.7281  157.6561 N.ar    1  UNL1       -0.1534
     16 C         143.8998  135.4136  155.6606 C.3     1  UNL1        0.2423
     17 P         142.9300  134.2966  155.4121 P.3     1  UNL1        0.3677
     18 O         141.9601  133.1797  155.1635 O.2     1  UNL1       -0.2557
     19 O         143.2609  133.7108  156.7527 O.3     1  UNL1       -0.2928
     20 C         144.9482  131.7980  156.2587 C.3     1  UNL1        0.0352
     21 C         143.6588  132.2688  156.8635 C.3     1  UNL1        0.1515
     22 O         142.5990  134.8825  154.0714 O.3     1  UNL1       -0.2928
     23 C         141.1785  135.2252  153.7327 C.3     1  UNL1        0.1515
     24 C         140.4241  136.2120  154.5736 C.3     1  UNL1        0.0352
     25 O         138.6007  137.9863  164.1497 O.3     1  UNL1       -0.4347
     26 C         138.8418  138.5940  165.4998 C.ar    1  UNL1        0.2494
     27 C         137.8551  138.3745  166.6081 C.ar    1  UNL1        0.1569
     28 N         138.0962  138.9821  167.9581 N.ar    1  UNL1       -0.2328
     29 C         139.3241  139.8093  168.1999 C.ar    1  UNL1        0.1538
     30 C         140.3107  140.0287  167.0916 C.ar    1  UNL1        0.1258
     31 N         140.0696  139.4210  165.7415 N.ar    1  UNL1       -0.2068
     32 C         139.5652  140.4169  169.5499 C.2     1  UNL1        0.2652
     33 O         138.8756  139.8568  170.7585 O.2     1  UNL1       -0.2684
     34 N         140.4960  141.5847  169.6913 N.am    1  UNL1       -0.2979
     35 C         140.7371  142.1924  171.0414 C.3     1  UNL1        0.1110
     36 H         140.9486  141.9524  168.8981 H       1  UNL1        0.1498
     37 O         137.5995  142.4235  161.6379 O.3     1  UNL1       -0.4791
     38 C         138.2397  143.5395  162.4089 C.3     1  UNL1        0.1661
     39 C         137.6714  143.9594  163.7321 C.3     1  UNL1        0.0472
     40 C         139.4482  144.2358  161.8568 C.3     1  UNL1        0.0472
@<TRIPOS>BOND
     1    20    21    1
     2    21    19    1
     3    19    17    1
     4    17    18    2
     5    17    16    1
     6    16    11    1
     7    11    12   ar
     8    12    13   ar
     9    13    14   ar
    10    14     7    1
    11     7     8   am
    12     8     9    2
    13     8     1    1
    14     1     2   ar
    15     2     3   ar
    16     3    25    1
    17    25    26    1
    18    26    27   ar
    19    27    28   ar
    20    28    29   ar
    21    29    32    1
    22    32    33    2
    23    32    34   am
    24    34    35    1
    25    29    30   ar
    26    30    31   ar
    27     3     4   ar
    28     4     5   ar
    29     5    37    1
    30    37    38    1
    31    38    39    1
    32    38    40    1
    33     5     6   ar
    34    14    15   ar
    35    17    22    1
    36    22    23    1
    37    23    24    1
    38    15    11   ar
    39     6     1   ar
    40    31    26   ar
    41     7    10    1
    42    34    36    1
@<TRIPOS>MOLECULE
*****
 40 42 0 0 0
SMALL
GASTEIGER

@<TRIPOS>ATOM
      1 C         144.0474  142.3505  158.3863 C.ar    1  UNL1        0.0597
      2 C         143.2025  141.4071  157.5826 C.ar    1  UNL1        0.0423
      3 C         143.7776  140.7287  156.3747 C.ar    1  UNL1        0.1504
      4 C         145.1976  140.9938  155.9706 C.ar    1  UNL1        0.0744
      5 C         146.0425  141.9372  156.7743 C.ar    1  UNL1        0.1416
      6 C         145.4674  142.6156  157.9822 C.ar    1  UNL1        0.0416
      7 N         143.8103  142.5289  160.9674 N.am    1  UNL1       -0.2644
      8 C         143.4723  143.0290  159.5943 C.2     1  UNL1        0.2508
      9 O         142.5592  144.2075  159.4290 O.2     1  UNL1       -0.2698
     10 H         144.4096  141.7554  161.0759 H       1  UNL1        0.1566
     11 N         141.8063  143.7358  164.0647 N.ar    1  UNL1       -0.2357
     12 C         142.8942  144.7668  164.0036 C.ar    1  UNL1        0.0988
     13 C         143.7774  144.4401  162.8359 C.ar    1  UNL1        0.0565
     14 C         143.2352  143.2073  162.1754 C.ar    1  UNL1        0.1557
     15 N         142.0170  142.7721  162.9348 N.ar    1  UNL1       -0.1534
     16 C         140.7016  143.6788  165.0777 C.3     1  UNL1        0.2423
     17 P         139.2707  143.6739  164.6277 P.3     1  UNL1        0.3677
     18 O         137.8398  143.6690  164.1778 O.2     1  UNL1       -0.2557
     19 O         139.4803  144.9938  163.9466 O.3     1  UNL1       -0.2928
     20 C         140.0252  145.7172  161.5115 C.3     1  UNL1        0.0352
     21 C         139.0548  145.1775  162.5200 C.3     1  UNL1        0.1515
     22 O         139.0611  142.3540  165.3089 O.3     1  UNL1       -0.2928
     23 C         138.9120  141.1042  164.4928 C.3     1  UNL1        0.1515
     24 C         138.2755  139.8867  165.0950 C.3     1  UNL1        0.0352
     25 O         142.9328  139.7852  155.5709 O.3     1  UNL1       -0.4347
     26 C         143.0585  138.3047  155.7770 C.ar    1  UNL1        0.2494
     27 C         144.2322  137.5651  155.2065 C.ar    1  UNL1        0.1569
     28 N         144.3579  136.0846  155.4126 N.ar    1  UNL1       -0.2328
     29 C         143.3098  135.3438  156.1891 C.ar    1  UNL1        0.1538
     30 C         142.1362  136.0835  156.7595 C.ar    1  UNL1        0.1258
     31 N         142.0105  137.5639  156.5534 N.ar    1  UNL1       -0.2068
     32 C         143.4355  133.8634  156.3951 C.2     1  UNL1        0.2652
     33 O         142.2072  133.0284  156.6047 O.2     1  UNL1       -0.2684
     34 N         144.7896  133.2180  156.3916 N.am    1  UNL1       -0.2979
     35 C         144.9153  131.7375  156.5976 C.3     1  UNL1        0.1110
     36 H         145.5958  133.7660  156.2540 H       1  UNL1        0.1498
     37 O         147.4625  142.2023  156.3702 O.3     1  UNL1       -0.4791
     38 C         147.7778  142.6095  154.9614 C.3     1  UNL1        0.1661
     39 C         147.1482  143.8393  154.3774 C.3     1  UNL1        0.0472
     40 C         148.7227  141.7867  154.1365 C.3     1  UNL1        0.0472
@<TRIPOS>BOND
     1    20    21    1
     2    21    19    1
     3    19    17    1
     4    17    18    2
     5    17    16    1
     6    16    11    1
     7    11    12   ar
     8    12    13   ar
     9    13    14   ar
    10    14     7    1
    11     7     8   am
    12     8     9    2
    13     8     1    1
    14     1     2   ar
    15     2     3   ar
    16     3    25    1
    17    25    26    1
    18    26    27   ar
    19    27    28   ar
    20    28    29   ar
    21    29    32    1
    22    32    33    2
    23    32    34   am
    24    34    35    1
    25    29    30   ar
    26    30    31   ar
    27     3     4   ar
    28     4     5   ar
    29     5    37    1
    30    37    38    1
    31    38    39    1
    32    38    40    1
    33     5     6   ar
    34    14    15   ar
    35    17    22    1
    36    22    23    1
    37    23    24    1
    38    15    11   ar
    39     6     1   ar
    40    31    26   ar
    41     7    10    1
    42    34    36    1
@<TRIPOS>MOLECULE
*****
 40 42 0 0 0
SMALL
GASTEIGER

@<TRIPOS>ATOM
      1 C         144.4574  141.9802  158.9696 C.ar    1  UNL1        0.0597
      2 C         143.5924  141.0205  158.2075 C.ar    1  UNL1        0.0423
      3 C         143.9651  140.6220  156.8103 C.ar    1  UNL1        0.1504
      4 C         145.2027  141.1832  156.1751 C.ar    1  UNL1        0.0744
      5 C         146.0676  142.1429  156.9372 C.ar    1  UNL1        0.1416
      6 C         145.6950  142.5414  158.3344 C.ar    1  UNL1        0.0416
      7 N         144.4285  141.4823  161.5194 N.am    1  UNL1       -0.2644
      8 C         144.0848  142.3787  160.3669 C.2     1  UNL1        0.2508
      9 O         143.3684  143.6737  160.6116 O.2     1  UNL1       -0.2698
     10 H         144.8987  140.6324  161.3587 H       1  UNL1        0.1566
     11 N         142.8309  142.1295  164.9971 N.ar    1  UNL1       -0.2357
     12 C         144.1343  142.8588  165.1366 C.ar    1  UNL1        0.0988
     13 C         144.8914  142.7051  163.8508 C.ar    1  UNL1        0.0565
     14 C         144.0559  141.8809  162.9167 C.ar    1  UNL1        0.1557
     15 N         142.7825  141.5252  163.6251 N.ar    1  UNL1       -0.1534
     16 C         141.7634  142.0233  166.0454 C.3     1  UNL1        0.2423
     17 P         141.9931  141.1845  167.2676 P.3     1  UNL1        0.3677
     18 O         142.2228  140.3456  168.4896 O.2     1  UNL1       -0.2557
     19 O         142.1019  142.4274  168.1003 O.3     1  UNL1       -0.2928
     20 C         140.4834  143.7667  169.6289 C.3     1  UNL1        0.0352
     21 C         141.3192  142.5474  169.3742 C.3     1  UNL1        0.1515
     22 O         141.8843  139.9416  166.4348 O.3     1  UNL1       -0.2928
     23 C         142.9169  138.8610  166.5618 C.3     1  UNL1        0.1515
     24 C         143.9563  138.6877  165.4943 C.3     1  UNL1        0.0352
     25 O         143.1001  139.6622  156.0481 O.3     1  UNL1       -0.4347
     26 C         143.2208  138.1872  156.2926 C.ar    1  UNL1        0.2494
     27 C         142.5991  137.5760  157.5133 C.ar    1  UNL1        0.1569
     28 N         142.7198  136.1009  157.7577 N.ar    1  UNL1       -0.2328
     29 C         143.4620  135.2372  156.7815 C.ar    1  UNL1        0.1538
     30 C         144.0836  135.8484  155.5608 C.ar    1  UNL1        0.1258
     31 N         143.9630  137.3234  155.3164 N.ar    1  UNL1       -0.2068
     32 C         143.5827  133.7621  157.0259 C.2     1  UNL1        0.2652
     33 O         142.4099  132.8617  156.7736 O.2     1  UNL1       -0.2684
     34 N         144.8762  133.1875  157.5227 N.am    1  UNL1       -0.2979
     35 C         144.9968  131.7125  157.7671 C.3     1  UNL1        0.1110
     36 H         145.6460  133.7785  157.6883 H       1  UNL1        0.1498
     37 O         147.3052  142.7041  156.3021 O.3     1  UNL1       -0.4791
     38 C         147.3934  142.8252  154.8096 C.3     1  UNL1        0.1661
     39 C         148.1970  141.8327  154.0227 C.3     1  UNL1        0.0472
     40 C         146.6779  143.9389  154.1039 C.3     1  UNL1        0.0472
@<TRIPOS>BOND
     1    20    21    1
     2    21    19    1
     3    19    17    1
     4    17    18    2
     5    17    16    1
     6    16    11    1
     7    11    12   ar
     8    12    13   ar
     9    13    14   ar
    10    14     7    1
    11     7     8   am
    12     8     9    2
    13     8     1    1
    14     1     2   ar
    15     2     3   ar
    16     3    25    1
    17    25    26    1
    18    26    27   ar
    19    27    28   ar
    20    28    29   ar
    21    29    32    1
    22    32    33    2
    23    32    34   am
    24    34    35    1
    25    29    30   ar
    26    30    31   ar
    27     3     4   ar
    28     4     5   ar
    29     5    37    1
    30    37    38    1
    31    38    39    1
    32    38    40    1
    33     5     6   ar
    34    14    15   ar
    35    17    22    1
    36    22    23    1
    37    23    24    1
    38    15    11   ar
    39     6     1   ar
    40    31    26   ar
    41     7    10    1
    42    34    36    1
@<TRIPOS>MOLECULE
*****
 40 42 0 0 0
SMALL
GASTEIGER

@<TRIPOS>ATOM
      1 C         141.5183  139.8371  162.2553 C.ar    1  UNL1        0.0597
      2 C         141.6549  141.3042  161.9748 C.ar    1  UNL1        0.0423
      3 C         141.6081  142.2911  163.1034 C.ar    1  UNL1        0.1504
      4 C         141.4248  141.8108  164.5126 C.ar    1  UNL1        0.0744
      5 C         141.2882  140.3437  164.7931 C.ar    1  UNL1        0.1416
      6 C         141.3349  139.3568  163.6645 C.ar    1  UNL1        0.0416
      7 N         141.7639  139.3291  159.7193 N.am    1  UNL1       -0.2644
      8 C         141.5650  138.8501  161.1267 C.2     1  UNL1        0.2508
      9 O         141.4128  137.3841  161.4056 O.2     1  UNL1       -0.2698
     10 H         141.8638  140.2912  159.5362 H       1  UNL1        0.1566
     11 N         142.5736  136.6188  157.0613 N.ar    1  UNL1       -0.2357
     12 C         141.1914  137.0279  156.6464 C.ar    1  UNL1        0.0988
     13 C         140.7198  138.0930  157.5916 C.ar    1  UNL1        0.0565
     14 C         141.8106  138.3421  158.5906 C.ar    1  UNL1        0.1557
     15 N         142.9563  137.4310  158.2629 N.ar    1  UNL1       -0.1534
     16 C         143.4238  135.5800  156.3922 C.3     1  UNL1        0.2423
     17 P         142.8218  134.2689  155.9814 P.3     1  UNL1        0.3677
     18 O         142.2199  132.9578  155.5706 O.2     1  UNL1       -0.2557
     19 O         142.8962  133.7899  157.4009 O.3     1  UNL1       -0.2928
     20 C         144.9894  132.3037  157.8008 C.3     1  UNL1        0.0352
     21 C         144.2309  133.5735  158.0505 C.3     1  UNL1        0.1515
     22 O         142.7475  134.7479  154.5619 O.3     1  UNL1       -0.2928
     23 C         141.6124  134.3141  153.6824 C.3     1  UNL1        0.1515
     24 C         141.6407  134.6220  152.2147 C.3     1  UNL1        0.0352
     25 O         141.7447  143.7584  162.8229 O.3     1  UNL1       -0.4347
     26 C         141.4429  144.2914  161.4537 C.ar    1  UNL1        0.2494
     27 C         140.1814  145.0662  161.2117 C.ar    1  UNL1        0.1569
     28 N         139.8796  145.5993  159.8425 N.ar    1  UNL1       -0.2328
     29 C         140.8392  145.3575  158.7152 C.ar    1  UNL1        0.1538
     30 C         142.1006  144.5828  158.9572 C.ar    1  UNL1        0.1258
     31 N         142.4025  144.0497  160.3264 N.ar    1  UNL1       -0.2068
     32 C         140.5374  145.8906  157.3460 C.2     1  UNL1        0.2652
     33 O         141.2233  145.3076  156.1462 O.2     1  UNL1       -0.2684
     34 N         139.5496  147.0067  157.1767 N.am    1  UNL1       -0.2979
     35 C         139.2478  147.5398  155.8074 C.3     1  UNL1        0.1110
     36 H         139.0994  147.3894  157.9642 H       1  UNL1        0.1498
     37 O         141.1048  139.8634  166.2023 O.3     1  UNL1       -0.4791
     38 C         139.7445  139.8923  166.8335 C.3     1  UNL1        0.1661
     39 C         138.5411  139.4746  166.0414 C.3     1  UNL1        0.0472
     40 C         139.5874  140.3389  168.2569 C.3     1  UNL1        0.0472
@<TRIPOS>BOND
     1    20    21    1
     2    21    19    1
     3    19    17    1
     4    17    18    2
     5    17    16    1
     6    16    11    1
     7    11    12   ar
     8    12    13   ar
     9    13    14   ar
    10    14     7    1
    11     7     8   am
    12     8     9    2
    13     8     1    1
    14     1     2   ar
    15     2     3   ar
    16     3    25    1
    17    25    26    1
    18    26    27   ar
    19    27    28   ar
    20    28    29   ar
    21    29    32    1
    22    32    33    2
    23    32    34   am
    24    34    35    1
    25    29    30   ar
    26    30    31   ar
    27     3     4   ar
    28     4     5   ar
    29     5    37    1
    30    37    38    1
    31    38    39    1
    32    38    40    1
    33     5     6   ar
    34    14    15   ar
    35    17    22    1
    36    22    23    1
    37    23    24    1
    38    15    11   ar
    39     6     1   ar
    40    31    26   ar
    41     7    10    1
    42    34    36    1
@<TRIPOS>MOLECULE
*****
 40 42 0 0 0
SMALL
GASTEIGER

@<TRIPOS>ATOM
      1 C         141.6227  139.8992  161.6452 C.ar    1  UNL1        0.0597
      2 C         141.9632  141.3186  161.2998 C.ar    1  UNL1        0.0423
      3 C         141.8425  142.3931  162.3394 C.ar    1  UNL1        0.1504
      4 C         141.3812  142.0482  163.7245 C.ar    1  UNL1        0.0744
      5 C         141.0407  140.6288  164.0699 C.ar    1  UNL1        0.1416
      6 C         141.1614  139.5543  163.0303 C.ar    1  UNL1        0.0416
      7 N         141.6687  139.1778  159.1497 N.am    1  UNL1       -0.2644
      8 C         141.7434  138.8246  160.6056 C.2     1  UNL1        0.2508
      9 O         141.9390  137.3969  161.0220 O.2     1  UNL1       -0.2698
     10 H         141.5404  140.1149  158.8765 H       1  UNL1        0.1566
     11 N         142.6683  136.2945  156.7511 N.ar    1  UNL1       -0.2357
     12 C         141.2820  136.6048  156.2695 C.ar    1  UNL1        0.0988
     13 C         140.7388  137.7227  157.1094 C.ar    1  UNL1        0.0565
     14 C         141.7894  138.1032  158.1101 C.ar    1  UNL1        0.1557
     15 N         142.9819  137.2206  157.8887 N.ar    1  UNL1       -0.1534
     16 C         143.5808  135.2429  156.1932 C.3     1  UNL1        0.2423
     17 P         143.0755  133.8464  155.9826 P.3     1  UNL1        0.3677
     18 O         142.5702  132.4498  155.7720 O.2     1  UNL1       -0.2557
     19 O         143.0301  134.0859  154.5026 O.3     1  UNL1       -0.2928
     20 C         141.1001  134.6702  152.8644 C.3     1  UNL1        0.0352
     21 C         141.8261  133.6677  153.7117 C.3     1  UNL1        0.1515
     22 O         143.1209  133.6068  157.4627 O.3     1  UNL1       -0.2928
     23 C         144.4373  133.3824  158.1461 C.3     1  UNL1        0.1515
     24 C         145.2716  132.1870  157.7927 C.3     1  UNL1        0.0352
     25 O         142.1830  143.8126  161.9941 O.3     1  UNL1       -0.4347
     26 C         141.7112  144.4030  160.6984 C.ar    1  UNL1        0.2494
     27 C         140.3850  145.1007  160.6311 C.ar    1  UNL1        0.1569
     28 N         139.9131  145.6912  159.3354 N.ar    1  UNL1       -0.2328
     29 C         140.7675  145.5840  158.1071 C.ar    1  UNL1        0.1538
     30 C         142.0936  144.8864  158.1745 C.ar    1  UNL1        0.1258
     31 N         142.5655  144.2959  159.4702 N.ar    1  UNL1       -0.2068
     32 C         140.2957  146.1745  156.8115 C.2     1  UNL1        0.2652
     33 O         140.6884  145.5393  155.5107 O.2     1  UNL1       -0.2684
     34 N         139.4311  147.4003  156.8167 N.am    1  UNL1       -0.2979
     35 C         138.9592  147.9908  155.5211 C.3     1  UNL1        0.1110
     36 H         139.1733  147.8172  157.6705 H       1  UNL1        0.1498
     37 O         140.5794  140.2839  165.4549 O.3     1  UNL1       -0.4791
     38 C         139.1179  140.0916  165.7325 C.3     1  UNL1        0.1661
     39 C         138.0949  140.7584  164.8614 C.3     1  UNL1        0.0472
     40 C         138.6794  139.2324  166.8813 C.3     1  UNL1        0.0472
@<TRIPOS>BOND
     1    20    21    1
     2    21    19    1
     3    19    17    1
     4    17    18    2
     5    17    16    1
     6    16    11    1
     7    11    12   ar
     8    12    13   ar
     9    13    14   ar
    10    14     7    1
    11     7     8   am
    12     8     9    2
    13     8     1    1
    14     1     2   ar
    15     2     3   ar
    16     3    25    1
    17    25    26    1
    18    26    27   ar
    19    27    28   ar
    20    28    29   ar
    21    29    32    1
    22    32    33    2
    23    32    34   am
    24    34    35    1
    25    29    30   ar
    26    30    31   ar
    27     3     4   ar
    28     4     5   ar
    29     5    37    1
    30    37    38    1
    31    38    39    1
    32    38    40    1
    33     5     6   ar
    34    14    15   ar
    35    17    22    1
    36    22    23    1
    37    23    24    1
    38    15    11   ar
    39     6     1   ar
    40    31    26   ar
    41     7    10    1
    42    34    36    1
@<TRIPOS>MOLECULE
*****
 40 42 0 0 0
SMALL
GASTEIGER

@<TRIPOS>ATOM
      1 C         138.2582  142.2980  158.4902 C.ar    1  UNL1        0.0597
      2 C         137.3568  141.2886  157.8432 C.ar    1  UNL1        0.0423
      3 C         137.1622  141.3012  156.3560 C.ar    1  UNL1        0.1504
      4 C         137.8690  142.3232  155.5157 C.ar    1  UNL1        0.0744
      5 C         138.7703  143.3326  156.1627 C.ar    1  UNL1        0.1416
      6 C         138.9649  143.3200  157.6499 C.ar    1  UNL1        0.0416
      7 N         138.7749  143.5585  160.7025 N.am    1  UNL1       -0.2644
      8 C         138.4528  142.2855  159.9775 C.2     1  UNL1        0.2508
      9 O         138.3252  141.0000  160.7398 O.2     1  UNL1       -0.2698
     10 H         138.8587  144.4023  160.2022 H       1  UNL1        0.1566
     11 N         139.9340  143.1917  164.3886 N.ar    1  UNL1       -0.2357
     12 C         138.6040  143.8618  164.5683 C.ar    1  UNL1        0.0988
     13 C         138.0079  144.0807  163.2093 C.ar    1  UNL1        0.0565
     14 C         138.9696  143.5460  162.1898 C.ar    1  UNL1        0.1557
     15 N         140.1599  142.9966  162.9187 N.ar    1  UNL1       -0.1534
     16 C         140.8731  142.7878  165.4862 C.3     1  UNL1        0.2423
     17 P         140.3928  141.8993  166.5953 P.3     1  UNL1        0.3677
     18 O         139.9126  141.0110  167.7044 O.2     1  UNL1       -0.2557
     19 O         140.4348  140.7202  165.6690 O.3     1  UNL1       -0.2928
     20 C         142.2217  138.8409  165.8267 C.3     1  UNL1        0.0352
     21 C         141.7541  140.1435  165.2485 C.3     1  UNL1        0.1515
     22 O         140.3509  143.0785  167.5215 O.3     1  UNL1       -0.2928
     23 C         140.6769  142.9024  168.9751 C.3     1  UNL1        0.1515
     24 C         140.4225  144.0209  169.9416 C.3     1  UNL1        0.0352
     25 O         136.2609  140.2917  155.7089 O.3     1  UNL1       -0.4347
     26 C         134.8064  140.2429  156.0725 C.ar    1  UNL1        0.2494
     27 C         133.8116  141.0540  155.2962 C.ar    1  UNL1        0.1569
     28 N         132.3572  141.0052  155.6598 N.ar    1  UNL1       -0.2328
     29 C         131.8975  140.1452  156.7997 C.ar    1  UNL1        0.1538
     30 C         132.8923  139.3342  157.5760 C.ar    1  UNL1        0.1258
     31 N         134.3468  139.3830  157.2124 N.ar    1  UNL1       -0.2068
     32 C         130.4431  140.0964  157.1633 C.2     1  UNL1        0.2652
     33 O         129.4206  140.7029  156.2487 O.2     1  UNL1       -0.2684
     34 N         130.0112  139.4411  158.4417 N.am    1  UNL1       -0.2979
     35 C         128.5567  139.3923  158.8053 C.3     1  UNL1        0.1110
     36 H         130.6823  139.0431  159.0420 H       1  UNL1        0.1498
     37 O         139.4770  144.3546  155.3224 O.3     1  UNL1       -0.4791
     38 C         140.3191  145.4101  155.9756 C.3     1  UNL1        0.1661
     39 C         141.7879  145.1805  156.1755 C.3     1  UNL1        0.0472
     40 C         139.6924  146.6954  156.4289 C.3     1  UNL1        0.0472
@<TRIPOS>BOND
     1    20    21    1
     2    21    19    1
     3    19    17    1
     4    17    18    2
     5    17    16    1
     6    16    11    1
     7    11    12   ar
     8    12    13   ar
     9    13    14   ar
    10    14     7    1
    11     7     8   am
    12     8     9    2
    13     8     1    1
    14     1     2   ar
    15     2     3   ar
    16     3    25    1
    17    25    26    1
    18    26    27   ar
    19    27    28   ar
    20    28    29   ar
    21    29    32    1
    22    32    33    2
    23    32    34   am
    24    34    35    1
    25    29    30   ar
    26    30    31   ar
    27     3     4   ar
    28     4     5   ar
    29     5    37    1
    30    37    38    1
    31    38    39    1
    32    38    40    1
    33     5     6   ar
    34    14    15   ar
    35    17    22    1
    36    22    23    1
    37    23    24    1
    38    15    11   ar
    39     6     1   ar
    40    31    26   ar
    41     7    10    1
    42    34    36    1
@<TRIPOS>MOLECULE
*****
 40 42 0 0 0
SMALL
GASTEIGER

@<TRIPOS>ATOM
      1 C         141.3298  138.4725  158.2113 C.ar    1  UNL1        0.0597
      2 C         140.0918  138.1820  159.0068 C.ar    1  UNL1        0.0423
      3 C         139.5876  139.1844  160.0023 C.ar    1  UNL1        0.1504
      4 C         140.3214  140.4772  160.2024 C.ar    1  UNL1        0.0744
      5 C         141.5595  140.7677  159.4069 C.ar    1  UNL1        0.1416
      6 C         142.0637  139.7654  158.4114 C.ar    1  UNL1        0.0416
      7 N         140.8639  136.6216  156.4486 N.am    1  UNL1       -0.2644
      8 C         141.8341  137.4702  157.2158 C.2     1  UNL1        0.2508
      9 O         143.3086  137.3165  156.9874 O.2     1  UNL1       -0.2698
     10 H         139.8961  136.7225  156.5985 H       1  UNL1        0.1566
     11 N         142.3743  133.6356  154.4820 N.ar    1  UNL1       -0.2357
     12 C         141.9138  134.5183  153.3600 C.ar    1  UNL1        0.0988
     13 C         141.2919  135.7444  153.9602 C.ar    1  UNL1        0.0565
     14 C         141.3682  135.6193  155.4531 C.ar    1  UNL1        0.1557
     15 N         142.0371  134.3160  155.7755 N.ar    1  UNL1       -0.1534
     16 C         143.0529  132.3059  154.3361 C.3     1  UNL1        0.2423
     17 P         143.0275  131.3225  155.4684 P.3     1  UNL1        0.3677
     18 O         143.0021  130.3391  156.6008 O.2     1  UNL1       -0.2557
     19 O         141.6202  130.9464  155.1103 O.3     1  UNL1       -0.2928
     20 C         139.7530  129.1403  155.0735 C.3     1  UNL1        0.0352
     21 C         141.2079  129.5042  155.1038 C.3     1  UNL1        0.1515
     22 O         144.4348  131.6986  155.8265 O.3     1  UNL1       -0.2928
     23 C         144.8580  131.7365  157.2651 C.3     1  UNL1        0.1515
     24 C         144.7622  133.0162  158.0416 C.3     1  UNL1        0.0352
     25 O         138.3494  138.8939  160.7977 O.3     1  UNL1       -0.4347
     26 C         138.3870  138.9630  162.2957 C.ar    1  UNL1        0.2494
     27 C         138.8642  137.7829  163.0892 C.ar    1  UNL1        0.1569
     28 N         138.9018  137.8521  164.5872 N.ar    1  UNL1       -0.2328
     29 C         138.4621  139.1014  165.2915 C.ar    1  UNL1        0.1538
     30 C         137.9848  140.2814  164.4980 C.ar    1  UNL1        0.1258
     31 N         137.9473  140.2122  163.0001 N.ar    1  UNL1       -0.2068
     32 C         138.4996  139.1705  166.7895 C.2     1  UNL1        0.2652
     33 O         137.5792  138.3100  167.6033 O.2     1  UNL1       -0.2684
     34 N         139.4576  140.1003  167.4736 N.am    1  UNL1       -0.2979
     35 C         139.4951  140.1695  168.9715 C.3     1  UNL1        0.1110
     36 H         140.0617  140.6651  166.9394 H       1  UNL1        0.1498
     37 O         142.2934  142.0605  159.6070 O.3     1  UNL1       -0.4791
     38 C         142.9902  142.3340  160.9068 C.3     1  UNL1        0.1661
     39 C         144.4077  141.8858  161.1067 C.3     1  UNL1        0.0472
     40 C         142.2696  143.0556  162.0069 C.3     1  UNL1        0.0472
@<TRIPOS>BOND
     1    20    21    1
     2    21    19    1
     3    19    17    1
     4    17    18    2
     5    17    16    1
     6    16    11    1
     7    11    12   ar
     8    12    13   ar
     9    13    14   ar
    10    14     7    1
    11     7     8   am
    12     8     9    2
    13     8     1    1
    14     1     2   ar
    15     2     3   ar
    16     3    25    1
    17    25    26    1
    18    26    27   ar
    19    27    28   ar
    20    28    29   ar
    21    29    32    1
    22    32    33    2
    23    32    34   am
    24    34    35    1
    25    29    30   ar
    26    30    31   ar
    27     3     4   ar
    28     4     5   ar
    29     5    37    1
    30    37    38    1
    31    38    39    1
    32    38    40    1
    33     5     6   ar
    34    14    15   ar
    35    17    22    1
    36    22    23    1
    37    23    24    1
    38    15    11   ar
    39     6     1   ar
    40    31    26   ar
    41     7    10    1
    42    34    36    1
@<TRIPOS>MOLECULE
*****
 40 42 0 0 0
SMALL
GASTEIGER

@<TRIPOS>ATOM
      1 C         137.7623  142.3026  157.2593 C.ar    1  UNL1        0.0597
      2 C         136.7586  141.3969  156.6097 C.ar    1  UNL1        0.0423
      3 C         136.3212  141.6522  155.1978 C.ar    1  UNL1        0.1504
      4 C         136.8875  142.8134  154.4355 C.ar    1  UNL1        0.0744
      5 C         137.8913  143.7191  155.0851 C.ar    1  UNL1        0.1416
      6 C         138.3287  143.4637  156.4970 C.ar    1  UNL1        0.0416
      7 N         138.2210  140.6469  159.2082 N.am    1  UNL1       -0.2644
      8 C         138.1997  142.0473  158.6712 C.2     1  UNL1        0.2508
      9 O         138.6160  143.1924  159.5461 O.2     1  UNL1       -0.2698
     10 H         137.9478  139.8953  158.6340 H       1  UNL1        0.1566
     11 N         138.6459  140.1787  163.0378 N.ar    1  UNL1       -0.2357
     12 C         140.0172  139.8186  162.5478 C.ar    1  UNL1        0.0988
     13 C         140.0249  139.9502  161.0536 C.ar    1  UNL1        0.0565
     14 C         138.6584  140.3916  160.6202 C.ar    1  UNL1        0.1557
     15 N         137.8062  140.5328  161.8464 N.ar    1  UNL1       -0.1534
     16 C         138.1939  140.1838  164.4680 C.3     1  UNL1        0.2423
     17 P         139.0075  140.8935  165.5093 P.3     1  UNL1        0.3677
     18 O         139.8210  141.6033  166.5506 O.2     1  UNL1       -0.2557
     19 O         139.4217  139.5723  166.0862 O.3     1  UNL1       -0.2928
     20 C         137.5123  138.3352  167.3406 C.3     1  UNL1        0.0352
     21 C         138.4351  138.4451  166.1632 C.3     1  UNL1        0.1515
     22 O         138.5932  142.2148  164.9323 O.3     1  UNL1       -0.2928
     23 C         139.4426  143.4306  165.1567 C.3     1  UNL1        0.1515
     24 C         138.7982  144.7736  165.3328 C.3     1  UNL1        0.0352
     25 O         135.3174  140.7465  154.5481 O.3     1  UNL1       -0.4347
     26 C         134.0245  140.4384  155.2435 C.ar    1  UNL1        0.2494
     27 C         132.8778  141.4015  155.1559 C.ar    1  UNL1        0.1569
     28 N         131.5849  141.0934  155.8513 N.ar    1  UNL1       -0.2328
     29 C         131.4388  139.8224  156.6344 C.ar    1  UNL1        0.1538
     30 C         132.5855  138.8594  156.7219 C.ar    1  UNL1        0.1258
     31 N         133.8783  139.1674  156.0265 N.ar    1  UNL1       -0.2068
     32 C         130.1459  139.5143  157.3298 C.2     1  UNL1        0.2652
     33 O         128.8433  139.9151  156.7033 O.2     1  UNL1       -0.2684
     34 N         130.1557  138.8055  158.6518 N.am    1  UNL1       -0.2979
     35 C         128.8628  138.4974  159.3472 C.3     1  UNL1        0.1110
     36 H         131.0107  138.5424  159.0629 H       1  UNL1        0.1498
     37 O         138.4577  144.8802  154.3229 O.3     1  UNL1       -0.4791
     38 C         139.4695  145.7796  154.9688 C.3     1  UNL1        0.1661
     39 C         139.0218  147.0173  155.6884 C.3     1  UNL1        0.0472
     40 C         140.9290  145.4414  154.8952 C.3     1  UNL1        0.0472
@<TRIPOS>BOND
     1    20    21    1
     2    21    19    1
     3    19    17    1
     4    17    18    2
     5    17    16    1
     6    16    11    1
     7    11    12   ar
     8    12    13   ar
     9    13    14   ar
    10    14     7    1
    11     7     8   am
    12     8     9    2
    13     8     1    1
    14     1     2   ar
    15     2     3   ar
    16     3    25    1
    17    25    26    1
    18    26    27   ar
    19    27    28   ar
    20    28    29   ar
    21    29    32    1
    22    32    33    2
    23    32    34   am
    24    34    35    1
    25    29    30   ar
    26    30    31   ar
    27     3     4   ar
    28     4     5   ar
    29     5    37    1
    30    37    38    1
    31    38    39    1
    32    38    40    1
    33     5     6   ar
    34    14    15   ar
    35    17    22    1
    36    22    23    1
    37    23    24    1
    38    15    11   ar
    39     6     1   ar
    40    31    26   ar
    41     7    10    1
    42    34    36    1
