@<TRIPOS>MOLECULE
*****
 42 46 0 0 0
SMALL
GASTEIGER

@<TRIPOS>ATOM
      1 C         141.6513  137.9096  162.8798 C.3     1  UNL1        0.0118
      2 C         140.4908  137.9951  161.9332 C.3     1  UNL1        0.0179
      3 C         140.7333  138.1709  160.4634 C.3     1  UNL1        0.0724
      4 N         142.1362  138.2614  159.9402 N.3     1  UNL1       -0.2689
      5 C         143.2966  138.1760  160.8868 C.3     1  UNL1        0.0724
      6 C         143.0542  138.0001  162.3566 C.3     1  UNL1        0.0179
      7 C         141.4089  137.7337  164.3496 C.3     1  UNL1        0.0851
      8 O         139.2778  138.4518  165.6507 O.2     1  UNL1       -0.2751
      9 C         140.6409  138.7720  165.1126 C.2     1  UNL1        0.2229
     10 N         141.2359  140.1305  165.3375 N.am    1  UNL1       -0.2985
     11 H         142.1305  140.3406  164.9844 H       1  UNL1        0.1500
     12 C         140.4679  141.1687  166.1005 C.3     1  UNL1        0.1229
     13 C         139.5874  142.1382  165.3693 C.ar    1  UNL1        0.0000
     14 C         138.4267  141.6360  164.5625 C.ar    1  UNL1       -0.0000
     15 C         137.5462  142.6055  163.8313 C.ar    1  UNL1        0.0294
     16 C         137.8263  144.0772  163.9068 C.ar    1  UNL1        0.1401
     17 F         136.9458  145.0467  163.1756 F       1  UNL1       -0.2042
     18 C         138.9869  144.5794  164.7135 C.ar    1  UNL1        0.0294
     19 C         139.8675  143.6099  165.4448 C.ar    1  UNL1       -0.0000
     20 C         140.5803  141.2374  167.5947 C.ar    1  UNL1        0.0708
     21 C         141.5852  142.1521  168.2299 C.ar    1  UNL1        0.0102
     22 C         141.6977  142.2208  169.7241 C.ar    1  UNL1        0.0769
     23 C         140.8053  141.3748  170.5831 C.ar    1  UNL1        0.3017
     24 N         139.8004  140.4602  169.9479 N.ar    1  UNL1       -0.1521
     25 O         138.9079  139.6141  170.8069 O.co2   1  UNL1       -0.6187
     26 C         139.6879  140.3914  168.4537 C.ar    1  UNL1        0.2992
     27 C         142.3786  138.4373  158.4704 C.3     1  UNL1        0.1007
     28 C         142.2650  137.2618  157.5456 C.ar    1  UNL1        0.0129
     29 C         141.2802  137.1145  156.4238 C.ar    1  UNL1        0.0176
     30 C         141.5228  135.7889  155.7651 C.ar    1  UNL1        0.0799
     31 N         142.6576  135.1169  156.4798 N.ar    1  UNL1       -0.3038
     32 C         143.1163  136.0272  157.5802 C.ar    1  UNL1        0.0772
     33 C         143.2327  133.7709  156.1517 C.ar    1  UNL1        0.0640
     34 C         144.2354  133.1394  157.0713 C.ar    1  UNL1        0.0175
     35 C         144.8105  131.7934  156.7432 C.ar    1  UNL1        0.0053
     36 C         144.3829  131.0791  155.4955 C.ar    1  UNL1        0.0715
     37 C         143.3802  131.7106  154.5759 C.ar    1  UNL1        0.0053
     38 C         142.8052  133.0565  154.9040 C.ar    1  UNL1        0.0175
     39 C         144.9580  129.7331  155.1674 C.3     1  UNL1        0.4186
     40 F         145.5331  128.3872  154.8392 F       1  UNL1       -0.1659
     41 F         144.9869  129.3896  156.6272 F       1  UNL1       -0.1659
     42 F         144.9292  130.0766  153.7075 F       1  UNL1       -0.1659
@<TRIPOS>UNITY_ATOM_ATTR
24 1
charge 1
25 1
charge -1
@<TRIPOS>BOND
     1     8     9    2
     2     9     7    1
     3     7     1    1
     4     1     2    1
     5     2     3    1
     6     3     4    1
     7     4    27    1
     8    27    28    1
     9    28    29   ar
    10    29    30   ar
    11    30    31   ar
    12    31    33    1
    13    33    34   ar
    14    34    35   ar
    15    35    36   ar
    16    36    39    1
    17    39    40    1
    18    39    41    1
    19    39    42    1
    20    36    37   ar
    21    37    38   ar
    22    31    32   ar
    23     4     5    1
    24     5     6    1
    25     9    10   am
    26    10    12    1
    27    12    13    1
    28    13    14   ar
    29    14    15   ar
    30    15    16   ar
    31    16    17    1
    32    16    18   ar
    33    18    19   ar
    34    12    20    1
    35    20    21   ar
    36    21    22   ar
    37    22    23   ar
    38    23    24   ar
    39    24    25    1
    40    24    26   ar
    41     6     1    1
    42    19    13   ar
    43    26    20   ar
    44    32    28   ar
    45    38    33   ar
    46    10    11    1
@<TRIPOS>MOLECULE
*****
 42 46 0 0 0
SMALL
GASTEIGER

@<TRIPOS>ATOM
      1 C         139.5976  144.3416  162.3435 C.3     1  UNL1        0.0118
      2 C         138.9035  143.2568  161.5745 C.3     1  UNL1        0.0179
      3 C         139.1585  143.0986  160.1048 C.3     1  UNL1        0.0724
      4 N         140.1075  144.0252  159.4042 N.3     1  UNL1       -0.2689
      5 C         140.8016  145.1100  160.1733 C.3     1  UNL1        0.0724
      6 C         140.5466  145.2682  161.6429 C.3     1  UNL1        0.0179
      7 C         139.3427  144.4999  163.8133 C.3     1  UNL1        0.0851
      8 O         138.0502  142.4910  164.8350 O.2     1  UNL1       -0.2751
      9 C         139.3111  143.2928  164.7032 C.2     1  UNL1        0.2229
     10 N         140.5403  142.8876  165.4614 N.am    1  UNL1       -0.2985
     11 H         141.3678  143.4138  165.3749 H       1  UNL1        0.1500
     12 C         140.5087  141.6806  166.3513 C.3     1  UNL1        0.1229
     13 C         140.6675  140.3102  165.7624 C.ar    1  UNL1        0.0000
     14 C         142.0372  139.7757  165.4652 C.ar    1  UNL1       -0.0000
     15 C         142.1960  138.4054  164.8763 C.ar    1  UNL1        0.0294
     16 C         140.9851  137.5695  164.5845 C.ar    1  UNL1        0.1401
     17 F         141.1439  136.1991  163.9956 F       1  UNL1       -0.2042
     18 C         139.6155  138.1039  164.8818 C.ar    1  UNL1        0.0294
     19 C         139.4566  139.4743  165.4707 C.ar    1  UNL1       -0.0000
     20 C         140.3183  141.8439  167.8302 C.ar    1  UNL1        0.0708
     21 C         140.4698  143.1963  168.4611 C.ar    1  UNL1        0.0102
     22 C         140.2793  143.3596  169.9399 C.ar    1  UNL1        0.0769
     23 C         139.9375  142.1706  170.7880 C.ar    1  UNL1        0.3017
     24 N         139.7860  140.8182  170.1571 N.ar    1  UNL1       -0.1521
     25 O         139.4441  139.6290  171.0052 O.co2   1  UNL1       -0.6187
     26 C         139.9764  140.6548  168.6782 C.ar    1  UNL1        0.2992
     27 C         140.3624  143.8669  157.9345 C.3     1  UNL1        0.1007
     28 C         139.7388  144.8197  156.9582 C.ar    1  UNL1        0.0129
     29 C         138.7314  144.4681  155.9040 C.ar    1  UNL1        0.0176
     30 C         138.3830  145.7226  155.1590 C.ar    1  UNL1        0.0799
     31 N         139.1751  146.8495  155.7528 N.ar    1  UNL1       -0.3038
     32 C         140.0130  146.2915  156.8648 C.ar    1  UNL1        0.0772
     33 C         139.1361  148.2828  155.3121 C.ar    1  UNL1        0.0640
     34 C         138.5013  149.3203  156.1897 C.ar    1  UNL1        0.0175
     35 C         138.4623  150.7536  155.7489 C.ar    1  UNL1        0.0053
     36 C         139.0582  151.1492  154.4305 C.ar    1  UNL1        0.0715
     37 C         139.6931  150.1116  153.5528 C.ar    1  UNL1        0.0053
     38 C         139.7321  148.6784  153.9936 C.ar    1  UNL1        0.0175
     39 C         139.0192  152.5824  153.9897 C.3     1  UNL1        0.4186
     40 F         138.9802  154.0157  153.5490 F       1  UNL1       -0.1659
     41 F         139.9290  152.2545  152.8431 F       1  UNL1       -0.1659
     42 F         138.1094  152.9104  155.1364 F       1  UNL1       -0.1659
@<TRIPOS>UNITY_ATOM_ATTR
24 1
charge 1
25 1
charge -1
@<TRIPOS>BOND
     1     8     9    2
     2     9     7    1
     3     7     1    1
     4     1     2    1
     5     2     3    1
     6     3     4    1
     7     4    27    1
     8    27    28    1
     9    28    29   ar
    10    29    30   ar
    11    30    31   ar
    12    31    33    1
    13    33    34   ar
    14    34    35   ar
    15    35    36   ar
    16    36    39    1
    17    39    40    1
    18    39    41    1
    19    39    42    1
    20    36    37   ar
    21    37    38   ar
    22    31    32   ar
    23     4     5    1
    24     5     6    1
    25     9    10   am
    26    10    12    1
    27    12    13    1
    28    13    14   ar
    29    14    15   ar
    30    15    16   ar
    31    16    17    1
    32    16    18   ar
    33    18    19   ar
    34    12    20    1
    35    20    21   ar
    36    21    22   ar
    37    22    23   ar
    38    23    24   ar
    39    24    25    1
    40    24    26   ar
    41     6     1    1
    42    19    13   ar
    43    26    20   ar
    44    32    28   ar
    45    38    33   ar
    46    10    11    1
@<TRIPOS>MOLECULE
*****
 42 46 0 0 0
SMALL
GASTEIGER

@<TRIPOS>ATOM
      1 C         142.2936  138.1832  162.7657 C.3     1  UNL1        0.0118
      2 C         143.6287  138.3305  162.0981 C.3     1  UNL1        0.0179
      3 C         143.7131  138.4289  160.6037 C.3     1  UNL1        0.0724
      4 N         142.4624  138.3801  159.7770 N.3     1  UNL1       -0.2689
      5 C         141.1273  138.2329  160.4447 C.3     1  UNL1        0.0724
      6 C         141.0429  138.1344  161.9391 C.3     1  UNL1        0.0179
      7 C         142.2092  138.0847  164.2602 C.3     1  UNL1        0.0851
      8 O         140.1601  138.7466  165.7139 O.2     1  UNL1       -0.2751
      9 C         141.4471  139.1163  165.0379 C.2     1  UNL1        0.2229
     10 N         141.9720  140.5178  165.1397 N.am    1  UNL1       -0.2985
     11 H         142.8167  140.7606  164.6961 H       1  UNL1        0.1500
     12 C         141.2100  141.5495  165.9175 C.3     1  UNL1        0.1229
     13 C         140.1608  142.3779  165.2371 C.ar    1  UNL1        0.0000
     14 C         140.4633  143.7922  164.8391 C.ar    1  UNL1       -0.0000
     15 C         139.4142  144.6205  164.1586 C.ar    1  UNL1        0.0294
     16 C         138.0625  144.0347  163.8762 C.ar    1  UNL1        0.1401
     17 F         137.0134  144.8631  163.1957 F       1  UNL1       -0.2042
     18 C         137.7600  142.6205  164.2741 C.ar    1  UNL1        0.0294
     19 C         138.8092  141.7920  164.9546 C.ar    1  UNL1       -0.0000
     20 C         141.4971  141.7528  167.3757 C.ar    1  UNL1        0.0708
     21 C         140.4077  141.5599  168.3885 C.ar    1  UNL1        0.0102
     22 C         140.6948  141.7632  169.8467 C.ar    1  UNL1        0.0769
     23 C         142.0713  142.1593  170.2920 C.ar    1  UNL1        0.3017
     24 N         143.1607  142.3521  169.2791 N.ar    1  UNL1       -0.1521
     25 O         144.5372  142.7483  169.7244 O.co2   1  UNL1       -0.6187
     26 C         142.8736  142.1489  167.8209 C.ar    1  UNL1        0.2992
     27 C         142.5469  138.4786  158.2826 C.3     1  UNL1        0.1007
     28 C         142.3617  137.2526  157.4385 C.ar    1  UNL1        0.0129
     29 C         141.2747  137.0337  156.4283 C.ar    1  UNL1        0.0176
     30 C         141.4721  135.6760  155.8219 C.ar    1  UNL1        0.0799
     31 N         142.6812  135.0558  156.4573 N.ar    1  UNL1       -0.3038
     32 C         143.2309  136.0303  157.4564 C.ar    1  UNL1        0.0772
     33 C         143.2420  133.6995  156.1479 C.ar    1  UNL1        0.0640
     34 C         142.7073  132.9137  154.9875 C.ar    1  UNL1        0.0175
     35 C         143.2681  131.5573  154.6781 C.ar    1  UNL1        0.0053
     36 C         144.3635  130.9867  155.5291 C.ar    1  UNL1        0.0715
     37 C         144.8983  131.7725  156.6896 C.ar    1  UNL1        0.0053
     38 C         144.3375  133.1288  156.9990 C.ar    1  UNL1        0.0175
     39 C         144.9243  129.6303  155.2197 C.3     1  UNL1        0.4186
     40 F         145.4851  128.2739  154.9104 F       1  UNL1       -0.1659
     41 F         145.0146  129.9987  153.7685 F       1  UNL1       -0.1659
     42 F         144.8340  129.2619  156.6710 F       1  UNL1       -0.1659
@<TRIPOS>UNITY_ATOM_ATTR
24 1
charge 1
25 1
charge -1
@<TRIPOS>BOND
     1     8     9    2
     2     9     7    1
     3     7     1    1
     4     1     2    1
     5     2     3    1
     6     3     4    1
     7     4    27    1
     8    27    28    1
     9    28    29   ar
    10    29    30   ar
    11    30    31   ar
    12    31    33    1
    13    33    34   ar
    14    34    35   ar
    15    35    36   ar
    16    36    39    1
    17    39    40    1
    18    39    41    1
    19    39    42    1
    20    36    37   ar
    21    37    38   ar
    22    31    32   ar
    23     4     5    1
    24     5     6    1
    25     9    10   am
    26    10    12    1
    27    12    13    1
    28    13    14   ar
    29    14    15   ar
    30    15    16   ar
    31    16    17    1
    32    16    18   ar
    33    18    19   ar
    34    12    20    1
    35    20    21   ar
    36    21    22   ar
    37    22    23   ar
    38    23    24   ar
    39    24    25    1
    40    24    26   ar
    41     6     1    1
    42    19    13   ar
    43    26    20   ar
    44    32    28   ar
    45    38    33   ar
    46    10    11    1
@<TRIPOS>MOLECULE
*****
 42 46 0 0 0
SMALL
GASTEIGER

@<TRIPOS>ATOM
      1 C         137.7657  141.7066  162.2919 C.3     1  UNL1        0.0118
      2 C         138.2476  142.6666  161.2450 C.3     1  UNL1        0.0179
      3 C         138.4768  142.1919  159.8407 C.3     1  UNL1        0.0724
      4 N         138.2241  140.7572  159.4833 N.3     1  UNL1       -0.2689
      5 C         137.7422  139.7972  160.5302 C.3     1  UNL1        0.0724
      6 C         137.5130  140.2719  161.9345 C.3     1  UNL1        0.0179
      7 C         137.5365  142.1812  163.6963 C.3     1  UNL1        0.0851
      8 O         139.1340  143.7912  164.9635 O.2     1  UNL1       -0.2751
      9 C         138.7026  142.3976  164.6146 C.2     1  UNL1        0.2229
     10 N         139.4373  141.2203  165.1841 N.am    1  UNL1       -0.2985
     11 H         139.1541  140.3056  164.9551 H       1  UNL1        0.1500
     12 C         140.6034  141.4366  166.1024 C.3     1  UNL1        0.1229
     13 C         142.0011  141.4104  165.5586 C.ar    1  UNL1        0.0000
     14 C         142.6994  140.0996  165.3479 C.ar    1  UNL1       -0.0000
     15 C         144.0971  140.0734  164.8042 C.ar    1  UNL1        0.0294
     16 C         144.7966  141.3578  164.4712 C.ar    1  UNL1        0.1401
     17 F         146.1943  141.3316  163.9274 F       1  UNL1       -0.2042
     18 C         144.0984  142.6685  164.6819 C.ar    1  UNL1        0.0294
     19 C         142.7006  142.6948  165.2256 C.ar    1  UNL1       -0.0000
     20 C         140.3718  141.6792  167.5644 C.ar    1  UNL1        0.0708
     21 C         140.6459  143.0314  168.1529 C.ar    1  UNL1        0.0102
     22 C         140.4144  143.2739  169.6150 C.ar    1  UNL1        0.0769
     23 C         139.9087  142.1643  170.4885 C.ar    1  UNL1        0.3017
     24 N         139.6346  140.8122  169.8999 N.ar    1  UNL1       -0.1521
     25 O         139.1288  139.7025  170.7734 O.co2   1  UNL1       -0.6187
     26 C         139.8661  140.5696  168.4379 C.ar    1  UNL1        0.2992
     27 C         138.4533  140.2826  158.0789 C.3     1  UNL1        0.1007
     28 C         139.7128  139.5452  157.7327 C.ar    1  UNL1        0.0129
     29 C         141.1095  140.0763  157.8626 C.ar    1  UNL1        0.0176
     30 C         142.0566  139.0066  157.4059 C.ar    1  UNL1        0.0799
     31 N         141.2452  137.8142  156.9936 N.ar    1  UNL1       -0.3038
     32 C         139.7966  138.1471  157.1956 C.ar    1  UNL1        0.0772
     33 C         141.7872  136.5168  156.4712 C.ar    1  UNL1        0.0640
     34 C         143.0244  135.9228  157.0764 C.ar    1  UNL1        0.0175
     35 C         143.5664  134.6254  156.5539 C.ar    1  UNL1        0.0053
     36 C         142.8712  133.9220  155.4262 C.ar    1  UNL1        0.0715
     37 C         141.6340  134.5160  154.8209 C.ar    1  UNL1        0.0053
     38 C         141.0919  135.8134  155.3434 C.ar    1  UNL1        0.0175
     39 C         143.4132  132.6247  154.9038 C.3     1  UNL1        0.4186
     40 F         143.9553  131.3272  154.3814 F       1  UNL1       -0.1659
     41 F         142.6763  132.8360  153.6145 F       1  UNL1       -0.1659
     42 F         144.1502  132.4133  156.1931 F       1  UNL1       -0.1659
@<TRIPOS>UNITY_ATOM_ATTR
24 1
charge 1
25 1
charge -1
@<TRIPOS>BOND
     1     8     9    2
     2     9     7    1
     3     7     1    1
     4     1     2    1
     5     2     3    1
     6     3     4    1
     7     4    27    1
     8    27    28    1
     9    28    29   ar
    10    29    30   ar
    11    30    31   ar
    12    31    33    1
    13    33    34   ar
    14    34    35   ar
    15    35    36   ar
    16    36    39    1
    17    39    40    1
    18    39    41    1
    19    39    42    1
    20    36    37   ar
    21    37    38   ar
    22    31    32   ar
    23     4     5    1
    24     5     6    1
    25     9    10   am
    26    10    12    1
    27    12    13    1
    28    13    14   ar
    29    14    15   ar
    30    15    16   ar
    31    16    17    1
    32    16    18   ar
    33    18    19   ar
    34    12    20    1
    35    20    21   ar
    36    21    22   ar
    37    22    23   ar
    38    23    24   ar
    39    24    25    1
    40    24    26   ar
    41     6     1    1
    42    19    13   ar
    43    26    20   ar
    44    32    28   ar
    45    38    33   ar
    46    10    11    1
@<TRIPOS>MOLECULE
*****
 42 46 0 0 0
SMALL
GASTEIGER

@<TRIPOS>ATOM
      1 C         138.9329  143.4931  161.9735 C.3     1  UNL1        0.0118
      2 C         139.8569  144.5773  161.5039 C.3     1  UNL1        0.0179
      3 C         140.2586  144.6473  160.0604 C.3     1  UNL1        0.0724
      4 N         139.7363  143.6330  159.0865 N.3     1  UNL1       -0.2689
      5 C         138.8123  142.5488  159.5562 C.3     1  UNL1        0.0724
      6 C         138.4106  142.4788  160.9996 C.3     1  UNL1        0.0179
      7 C         138.5311  143.4231  163.4171 C.3     1  UNL1        0.0851
      8 O         140.5752  144.0549  164.8910 O.2     1  UNL1       -0.2751
      9 C         139.5438  143.0545  164.4604 C.2     1  UNL1        0.2229
     10 N         139.5252  141.6854  165.0731 N.am    1  UNL1       -0.2985
     11 H         138.8483  141.0288  164.7905 H       1  UNL1        0.1500
     12 C         140.5379  141.3169  166.1164 C.3     1  UNL1        0.1229
     13 C         141.8366  140.6852  165.7110 C.ar    1  UNL1        0.0000
     14 C         142.1657  139.2923  166.1602 C.ar    1  UNL1       -0.0000
     15 C         143.4643  138.6607  165.7547 C.ar    1  UNL1        0.0294
     16 C         144.4339  139.4218  164.9000 C.ar    1  UNL1        0.1401
     17 F         145.7325  138.7901  164.4945 F       1  UNL1       -0.2042
     18 C         144.1049  140.8145  164.4507 C.ar    1  UNL1        0.0294
     19 C         142.8062  141.4463  164.8562 C.ar    1  UNL1       -0.0000
     20 C         140.2520  141.5800  167.5652 C.ar    1  UNL1        0.0708
     21 C         140.6048  142.9063  168.1705 C.ar    1  UNL1        0.0102
     22 C         140.3189  143.1694  169.6193 C.ar    1  UNL1        0.0769
     23 C         139.6801  142.1062  170.4628 C.ar    1  UNL1        0.3017
     24 N         139.3273  140.7799  169.8576 N.ar    1  UNL1       -0.1521
     25 O         138.6885  139.7166  170.7011 O.co2   1  UNL1       -0.6187
     26 C         139.6132  140.5168  168.4088 C.ar    1  UNL1        0.2992
     27 C         140.1380  143.7030  157.6430 C.3     1  UNL1        0.1007
     28 C         139.5227  144.7327  156.7424 C.ar    1  UNL1        0.0129
     29 C         138.4102  144.4968  155.7643 C.ar    1  UNL1        0.0176
     30 C         138.1118  145.7973  155.0791 C.ar    1  UNL1        0.0799
     31 N         139.0400  146.8371  155.6337 N.ar    1  UNL1       -0.3038
     32 C         139.9120  146.1791  156.6616 C.ar    1  UNL1        0.0772
     33 C         139.0878  148.2812  155.2310 C.ar    1  UNL1        0.0640
     34 C         138.4577  149.3248  156.1048 C.ar    1  UNL1        0.0175
     35 C         138.5055  150.7689  155.7021 C.ar    1  UNL1        0.0053
     36 C         139.1835  151.1695  154.4256 C.ar    1  UNL1        0.0715
     37 C         139.8137  150.1259  153.5516 C.ar    1  UNL1        0.0053
     38 C         139.7659  148.6818  153.9543 C.ar    1  UNL1        0.0175
     39 C         139.2313  152.6136  154.0229 C.3     1  UNL1        0.4186
     40 F         139.2791  154.0577  153.6201 F       1  UNL1       -0.1659
     41 F         138.0289  152.8912  154.8756 F       1  UNL1       -0.1659
     42 F         140.4337  152.3360  153.1701 F       1  UNL1       -0.1659
@<TRIPOS>UNITY_ATOM_ATTR
24 1
charge 1
25 1
charge -1
@<TRIPOS>BOND
     1     8     9    2
     2     9     7    1
     3     7     1    1
     4     1     2    1
     5     2     3    1
     6     3     4    1
     7     4    27    1
     8    27    28    1
     9    28    29   ar
    10    29    30   ar
    11    30    31   ar
    12    31    33    1
    13    33    34   ar
    14    34    35   ar
    15    35    36   ar
    16    36    39    1
    17    39    40    1
    18    39    41    1
    19    39    42    1
    20    36    37   ar
    21    37    38   ar
    22    31    32   ar
    23     4     5    1
    24     5     6    1
    25     9    10   am
    26    10    12    1
    27    12    13    1
    28    13    14   ar
    29    14    15   ar
    30    15    16   ar
    31    16    17    1
    32    16    18   ar
    33    18    19   ar
    34    12    20    1
    35    20    21   ar
    36    21    22   ar
    37    22    23   ar
    38    23    24   ar
    39    24    25    1
    40    24    26   ar
    41     6     1    1
    42    19    13   ar
    43    26    20   ar
    44    32    28   ar
    45    38    33   ar
    46    10    11    1
@<TRIPOS>MOLECULE
*****
 42 46 0 0 0
SMALL
GASTEIGER

@<TRIPOS>ATOM
      1 C         140.3875  138.0460  161.9116 C.3     1  UNL1        0.0118
      2 C         139.3836  138.2912  160.8244 C.3     1  UNL1        0.0179
      3 C         139.8328  138.3861  159.3964 C.3     1  UNL1        0.0724
      4 N         141.2858  138.2358  159.0556 N.3     1  UNL1       -0.2689
      5 C         142.2897  137.9905  160.1428 C.3     1  UNL1        0.0724
      6 C         141.8405  137.8956  161.5708 C.3     1  UNL1        0.0179
      7 C         139.9384  137.9510  163.3397 C.3     1  UNL1        0.0851
      8 O         139.0937  140.0828  164.5611 O.2     1  UNL1       -0.2751
      9 C         140.1850  139.0926  164.2809 C.2     1  UNL1        0.2229
     10 N         141.5229  139.2441  164.9421 N.am    1  UNL1       -0.2985
     11 H         142.2392  138.5942  164.7582 H       1  UNL1        0.1500
     12 C         141.7695  140.3857  165.8833 C.3     1  UNL1        0.1229
     13 C         142.3073  141.6851  165.3615 C.ar    1  UNL1        0.0000
     14 C         143.7785  141.9697  165.4304 C.ar    1  UNL1       -0.0000
     15 C         144.3162  143.2691  164.9086 C.ar    1  UNL1        0.0294
     16 C         143.3829  144.2839  164.3179 C.ar    1  UNL1        0.1401
     17 F         143.9206  145.5834  163.7962 F       1  UNL1       -0.2042
     18 C         141.9118  143.9994  164.2490 C.ar    1  UNL1        0.0294
     19 C         141.3739  142.6999  164.7708 C.ar    1  UNL1       -0.0000
     20 C         141.4783  140.2279  167.3462 C.ar    1  UNL1        0.0708
     21 C         140.0921  140.4704  167.8655 C.ar    1  UNL1        0.0102
     22 C         139.8009  140.3125  169.3284 C.ar    1  UNL1        0.0769
     23 C         140.8959  139.9122  170.2722 C.ar    1  UNL1        0.3017
     24 N         142.2821  139.6697  169.7530 N.ar    1  UNL1       -0.1521
     25 O         143.3772  139.2694  170.6967 O.co2   1  UNL1       -0.6187
     26 C         142.5733  139.8275  168.2900 C.ar    1  UNL1        0.2992
     27 C         141.7349  138.3307  157.6275 C.3     1  UNL1        0.1007
     28 C         141.7418  137.1067  156.7606 C.ar    1  UNL1        0.0129
     29 C         140.8414  136.8514  155.5884 C.ar    1  UNL1        0.0176
     30 C         141.1935  135.5099  155.0169 C.ar    1  UNL1        0.0799
     31 N         142.3116  134.9361  155.8360 N.ar    1  UNL1       -0.3038
     32 C         142.6504  135.9230  156.9136 C.ar    1  UNL1        0.0772
     33 C         142.9744  133.6086  155.6159 C.ar    1  UNL1        0.0640
     34 C         144.1215  133.1896  156.4867 C.ar    1  UNL1        0.0175
     35 C         144.7843  131.8621  156.2667 C.ar    1  UNL1        0.0053
     36 C         144.2999  130.9537  155.1759 C.ar    1  UNL1        0.0715
     37 C         143.1528  131.3726  154.3051 C.ar    1  UNL1        0.0053
     38 C         142.4900  132.7001  154.5251 C.ar    1  UNL1        0.0175
     39 C         144.9627  129.6262  154.9559 C.3     1  UNL1        0.4186
     40 F         145.6255  128.2986  154.7358 F       1  UNL1       -0.1659
     41 F         144.9143  129.3575  156.4308 F       1  UNL1       -0.1659
     42 F         145.0112  129.8948  153.4809 F       1  UNL1       -0.1659
@<TRIPOS>UNITY_ATOM_ATTR
24 1
charge 1
25 1
charge -1
@<TRIPOS>BOND
     1     8     9    2
     2     9     7    1
     3     7     1    1
     4     1     2    1
     5     2     3    1
     6     3     4    1
     7     4    27    1
     8    27    28    1
     9    28    29   ar
    10    29    30   ar
    11    30    31   ar
    12    31    33    1
    13    33    34   ar
    14    34    35   ar
    15    35    36   ar
    16    36    39    1
    17    39    40    1
    18    39    41    1
    19    39    42    1
    20    36    37   ar
    21    37    38   ar
    22    31    32   ar
    23     4     5    1
    24     5     6    1
    25     9    10   am
    26    10    12    1
    27    12    13    1
    28    13    14   ar
    29    14    15   ar
    30    15    16   ar
    31    16    17    1
    32    16    18   ar
    33    18    19   ar
    34    12    20    1
    35    20    21   ar
    36    21    22   ar
    37    22    23   ar
    38    23    24   ar
    39    24    25    1
    40    24    26   ar
    41     6     1    1
    42    19    13   ar
    43    26    20   ar
    44    32    28   ar
    45    38    33   ar
    46    10    11    1
@<TRIPOS>MOLECULE
*****
 42 46 0 0 0
SMALL
GASTEIGER

@<TRIPOS>ATOM
      1 C         141.6856  138.0578  162.6213 C.3     1  UNL1        0.0118
      2 C         143.0796  138.0037  162.0703 C.3     1  UNL1        0.0179
      3 C         143.3075  138.1273  160.5929 C.3     1  UNL1        0.0724
      4 N         142.1412  138.3051  159.6665 N.3     1  UNL1       -0.2689
      5 C         140.7472  138.3593  160.2175 C.3     1  UNL1        0.0724
      6 C         140.5193  138.2356  161.6949 C.3     1  UNL1        0.0179
      7 C         141.4577  137.9342  164.0988 C.3     1  UNL1        0.0851
      8 O         139.7521  138.8697  165.8209 O.2     1  UNL1       -0.2751
      9 C         140.8908  139.0894  164.8694 C.2     1  UNL1        0.2229
     10 N         141.4625  140.4644  164.6887 N.am    1  UNL1       -0.2985
     11 H         142.2098  140.6086  164.0643 H       1  UNL1        0.1500
     12 C         140.8956  141.6196  165.4594 C.3     1  UNL1        0.1229
     13 C         141.3167  141.8523  166.8801 C.ar    1  UNL1        0.0000
     14 C         140.2963  141.8236  167.9792 C.ar    1  UNL1       -0.0000
     15 C         140.7174  142.0562  169.3999 C.ar    1  UNL1        0.0294
     16 C         142.1590  142.3175  169.7216 C.ar    1  UNL1        0.1401
     17 F         142.5802  142.5502  171.1423 F       1  UNL1       -0.2042
     18 C         143.1795  142.3462  168.6226 C.ar    1  UNL1        0.0294
     19 C         142.7583  142.1136  167.2018 C.ar    1  UNL1       -0.0000
     20 C         139.9075  142.5422  164.8094 C.ar    1  UNL1        0.0708
     21 C         139.5252  143.8268  165.4829 C.ar    1  UNL1        0.0102
     22 C         138.5372  144.7494  164.8329 C.ar    1  UNL1        0.0769
     23 C         137.9313  144.3874  163.5094 C.ar    1  UNL1        0.3017
     24 N         138.3136  143.1028  162.8358 N.ar    1  UNL1       -0.1521
     25 O         137.7077  142.7408  161.5122 O.co2   1  UNL1       -0.6187
     26 C         139.3016  142.1802  163.4858 C.ar    1  UNL1        0.2992
     27 C         142.3691  138.4288  158.1890 C.3     1  UNL1        0.1007
     28 C         142.1678  137.2398  157.2970 C.ar    1  UNL1        0.0129
     29 C         141.0352  137.0420  156.3336 C.ar    1  UNL1        0.0176
     30 C         141.2312  135.7198  155.6530 C.ar    1  UNL1        0.0799
     31 N         142.4849  135.1003  156.1957 N.ar    1  UNL1       -0.3038
     32 C         143.0638  136.0397  157.2117 C.ar    1  UNL1        0.0772
     33 C         143.0590  133.7743  155.7930 C.ar    1  UNL1        0.0640
     34 C         144.1256  133.1334  156.6304 C.ar    1  UNL1        0.0175
     35 C         144.6996  131.8073  156.2278 C.ar    1  UNL1        0.0053
     36 C         144.2070  131.1223  154.9877 C.ar    1  UNL1        0.0715
     37 C         143.1404  131.7632  154.1502 C.ar    1  UNL1        0.0053
     38 C         142.5663  133.0892  154.5528 C.ar    1  UNL1        0.0175
     39 C         144.7811  129.7963  154.5850 C.3     1  UNL1        0.4186
     40 F         145.3551  128.4703  154.1823 F       1  UNL1       -0.1659
     41 F         145.0083  129.4564  156.0282 F       1  UNL1       -0.1659
     42 F         144.5539  130.1362  153.1417 F       1  UNL1       -0.1659
@<TRIPOS>UNITY_ATOM_ATTR
24 1
charge 1
25 1
charge -1
@<TRIPOS>BOND
     1     8     9    2
     2     9     7    1
     3     7     1    1
     4     1     2    1
     5     2     3    1
     6     3     4    1
     7     4    27    1
     8    27    28    1
     9    28    29   ar
    10    29    30   ar
    11    30    31   ar
    12    31    33    1
    13    33    34   ar
    14    34    35   ar
    15    35    36   ar
    16    36    39    1
    17    39    40    1
    18    39    41    1
    19    39    42    1
    20    36    37   ar
    21    37    38   ar
    22    31    32   ar
    23     4     5    1
    24     5     6    1
    25     9    10   am
    26    10    12    1
    27    12    13    1
    28    13    14   ar
    29    14    15   ar
    30    15    16   ar
    31    16    17    1
    32    16    18   ar
    33    18    19   ar
    34    12    20    1
    35    20    21   ar
    36    21    22   ar
    37    22    23   ar
    38    23    24   ar
    39    24    25    1
    40    24    26   ar
    41     6     1    1
    42    19    13   ar
    43    26    20   ar
    44    32    28   ar
    45    38    33   ar
    46    10    11    1
@<TRIPOS>MOLECULE
*****
 42 46 0 0 0
SMALL
GASTEIGER

@<TRIPOS>ATOM
      1 C         138.3489  139.6486  162.1144 C.3     1  UNL1        0.0118
      2 C         139.2175  138.5235  161.6354 C.3     1  UNL1        0.0179
      3 C         139.5776  138.4201  160.1829 C.3     1  UNL1        0.0724
      4 N         139.0691  139.4419  159.2096 N.3     1  UNL1       -0.2689
      5 C         138.2005  140.5670  159.6887 C.3     1  UNL1        0.0724
      6 C         137.8404  140.6704  161.1411 C.3     1  UNL1        0.0179
      7 C         137.9887  139.7520  163.5669 C.3     1  UNL1        0.0851
      8 O         137.8501  142.0857  164.7004 O.2     1  UNL1       -0.2751
      9 C         138.6063  140.8213  164.4185 C.2     1  UNL1        0.2229
     10 N         139.9802  140.6261  164.9882 N.am    1  UNL1       -0.2985
     11 H         140.4765  139.7963  164.8032 H       1  UNL1        0.1500
     12 C         140.5978  141.6954  165.8398 C.3     1  UNL1        0.1229
     13 C         141.5019  142.7191  165.2197 C.ar    1  UNL1        0.0000
     14 C         140.9175  143.8882  164.4835 C.ar    1  UNL1       -0.0000
     15 C         141.8215  144.9120  163.8634 C.ar    1  UNL1        0.0294
     16 C         143.3100  144.7667  163.9793 C.ar    1  UNL1        0.1401
     17 F         144.2140  145.7904  163.3592 F       1  UNL1       -0.2042
     18 C         143.8943  143.5977  164.7155 C.ar    1  UNL1        0.0294
     19 C         142.9903  142.5739  165.3356 C.ar    1  UNL1       -0.0000
     20 C         140.3114  141.7409  167.3115 C.ar    1  UNL1        0.0708
     21 C         139.7697  140.5279  168.0080 C.ar    1  UNL1        0.0102
     22 C         139.4832  140.5734  169.4797 C.ar    1  UNL1        0.0769
     23 C         139.7385  141.8319  170.2549 C.ar    1  UNL1        0.3017
     24 N         140.2802  143.0449  169.5584 N.ar    1  UNL1       -0.1521
     25 O         140.5355  144.3035  170.3335 O.co2   1  UNL1       -0.6187
     26 C         140.5666  142.9994  168.0867 C.ar    1  UNL1        0.2992
     27 C         139.4292  139.3385  157.7571 C.3     1  UNL1        0.1007
     28 C         140.6006  138.5034  157.3324 C.ar    1  UNL1        0.0129
     29 C         142.0426  138.9117  157.3930 C.ar    1  UNL1        0.0176
     30 C         142.8689  137.7739  156.8707 C.ar    1  UNL1        0.0799
     31 N         141.9374  136.6624  156.4872 N.ar    1  UNL1       -0.3038
     32 C         140.5356  137.1132  156.7726 C.ar    1  UNL1        0.0772
     33 C         142.3376  135.3335  155.9183 C.ar    1  UNL1        0.0640
     34 C         141.5707  134.7475  154.7701 C.ar    1  UNL1        0.0175
     35 C         141.9709  133.4186  154.2012 C.ar    1  UNL1        0.0053
     36 C         143.1380  132.6756  154.7804 C.ar    1  UNL1        0.0715
     37 C         143.9050  133.2615  155.9286 C.ar    1  UNL1        0.0053
     38 C         143.5048  134.5904  156.4976 C.ar    1  UNL1        0.0175
     39 C         143.5382  131.3466  154.2115 C.3     1  UNL1        0.4186
     40 F         143.9384  130.0177  153.6424 F       1  UNL1       -0.1659
     41 F         143.8927  130.8645  155.5869 F       1  UNL1       -0.1659
     42 F         143.1837  131.8287  152.8359 F       1  UNL1       -0.1659
@<TRIPOS>UNITY_ATOM_ATTR
24 1
charge 1
25 1
charge -1
@<TRIPOS>BOND
     1     8     9    2
     2     9     7    1
     3     7     1    1
     4     1     2    1
     5     2     3    1
     6     3     4    1
     7     4    27    1
     8    27    28    1
     9    28    29   ar
    10    29    30   ar
    11    30    31   ar
    12    31    33    1
    13    33    34   ar
    14    34    35   ar
    15    35    36   ar
    16    36    39    1
    17    39    40    1
    18    39    41    1
    19    39    42    1
    20    36    37   ar
    21    37    38   ar
    22    31    32   ar
    23     4     5    1
    24     5     6    1
    25     9    10   am
    26    10    12    1
    27    12    13    1
    28    13    14   ar
    29    14    15   ar
    30    15    16   ar
    31    16    17    1
    32    16    18   ar
    33    18    19   ar
    34    12    20    1
    35    20    21   ar
    36    21    22   ar
    37    22    23   ar
    38    23    24   ar
    39    24    25    1
    40    24    26   ar
    41     6     1    1
    42    19    13   ar
    43    26    20   ar
    44    32    28   ar
    45    38    33   ar
    46    10    11    1
@<TRIPOS>MOLECULE
*****
 42 46 0 0 0
SMALL
GASTEIGER

@<TRIPOS>ATOM
      1 C         143.4865  139.1488  162.3431 C.3     1  UNL1        0.0118
      2 C         142.5779  138.0175  161.9628 C.3     1  UNL1        0.0179
      3 C         142.2037  137.8069  160.5256 C.3     1  UNL1        0.0724
      4 N         142.7380  138.7275  159.4688 N.3     1  UNL1       -0.2689
      5 C         143.6466  139.8588  159.8491 C.3     1  UNL1        0.0724
      6 C         144.0208  140.0694  161.2863 C.3     1  UNL1        0.0179
      7 C         143.8607  139.3595  163.7804 C.3     1  UNL1        0.0851
      8 O         143.4079  141.5583  165.0882 O.2     1  UNL1       -0.2751
      9 C         142.9790  140.1825  164.6721 C.2     1  UNL1        0.2229
     10 N         141.6681  139.6296  165.1478 N.am    1  UNL1       -0.2985
     11 H         141.3865  138.7267  164.8746 H       1  UNL1        0.1500
     12 C         140.7864  140.4526  166.0395 C.3     1  UNL1        0.1229
     13 C         139.8871  141.4971  165.4478 C.ar    1  UNL1        0.0000
     14 C         140.1886  142.9517  165.6561 C.ar    1  UNL1       -0.0000
     15 C         139.2893  143.9963  165.0644 C.ar    1  UNL1        0.0294
     16 C         138.0886  143.5864  164.2643 C.ar    1  UNL1        0.1401
     17 F         137.1893  144.6309  163.6726 F       1  UNL1       -0.2042
     18 C         137.7871  142.1319  164.0560 C.ar    1  UNL1        0.0294
     19 C         138.6863  141.0872  164.6477 C.ar    1  UNL1       -0.0000
     20 C         140.8039  140.2309  167.5229 C.ar    1  UNL1        0.0708
     21 C         139.5576  140.4492  168.3286 C.ar    1  UNL1        0.0102
     22 C         139.5751  140.2275  169.8120 C.ar    1  UNL1        0.0769
     23 C         140.8389  139.7877  170.4898 C.ar    1  UNL1        0.3017
     24 N         142.0851  139.5695  169.6841 N.ar    1  UNL1       -0.1521
     25 O         143.3490  139.1296  170.3619 O.co2   1  UNL1       -0.6187
     26 C         142.0676  139.7911  168.2007 C.ar    1  UNL1        0.2992
     27 C         142.3638  138.5168  158.0315 C.3     1  UNL1        0.1007
     28 C         142.9678  137.3826  157.2577 C.ar    1  UNL1        0.0129
     29 C         143.6392  137.4865  155.9204 C.ar    1  UNL1        0.0176
     30 C         144.0928  136.1136  155.5216 C.ar    1  UNL1        0.0799
     31 N         143.7018  135.1610  156.6124 N.ar    1  UNL1       -0.3038
     32 C         143.0065  135.9454  157.6854 C.ar    1  UNL1        0.0772
     33 C         143.9607  133.6836  156.6275 C.ar    1  UNL1        0.0640
     34 C         144.6553  133.0559  157.7994 C.ar    1  UNL1        0.0175
     35 C         144.9141  131.5785  157.8145 C.ar    1  UNL1        0.0053
     36 C         144.4784  130.7288  156.6578 C.ar    1  UNL1        0.0715
     37 C         143.7837  131.3565  155.4859 C.ar    1  UNL1        0.0053
     38 C         143.5249  132.8339  155.4708 C.ar    1  UNL1        0.0175
     39 C         144.7372  129.2514  156.6730 C.3     1  UNL1        0.4186
     40 F         144.9961  127.7740  156.6882 F       1  UNL1       -0.1659
     41 F         144.6894  129.2277  155.1739 F       1  UNL1       -0.1659
     42 F         144.7851  129.2751  158.1721 F       1  UNL1       -0.1659
@<TRIPOS>UNITY_ATOM_ATTR
24 1
charge 1
25 1
charge -1
@<TRIPOS>BOND
     1     8     9    2
     2     9     7    1
     3     7     1    1
     4     1     2    1
     5     2     3    1
     6     3     4    1
     7     4    27    1
     8    27    28    1
     9    28    29   ar
    10    29    30   ar
    11    30    31   ar
    12    31    33    1
    13    33    34   ar
    14    34    35   ar
    15    35    36   ar
    16    36    39    1
    17    39    40    1
    18    39    41    1
    19    39    42    1
    20    36    37   ar
    21    37    38   ar
    22    31    32   ar
    23     4     5    1
    24     5     6    1
    25     9    10   am
    26    10    12    1
    27    12    13    1
    28    13    14   ar
    29    14    15   ar
    30    15    16   ar
    31    16    17    1
    32    16    18   ar
    33    18    19   ar
    34    12    20    1
    35    20    21   ar
    36    21    22   ar
    37    22    23   ar
    38    23    24   ar
    39    24    25    1
    40    24    26   ar
    41     6     1    1
    42    19    13   ar
    43    26    20   ar
    44    32    28   ar
    45    38    33   ar
    46    10    11    1
