@<TRIPOS>MOLECULE
*****
 26 28 0 0 0
SMALL
GASTEIGER

@<TRIPOS>ATOM
      1 C         138.6436  144.3376  162.9394 C.ar    1  UNL1        0.2181
      2 N         137.9285  143.0853  162.5270 N.ar    1  UNL1       -0.1986
      3 C         138.0516  141.8428  163.3585 C.ar    1  UNL1        0.1388
      4 C         138.8898  141.8529  164.6023 C.ar    1  UNL1        0.0786
      5 S         139.1967  140.7891  165.6144 S.2     1  UNL1       -0.0826
      6 C         140.1015  141.3841  166.6523 C.ar    1  UNL1        0.0311
      7 C         140.3539  142.8155  166.2817 C.ar    1  UNL1        0.0263
      8 C         139.6050  143.1052  165.0147 C.ar    1  UNL1        0.0933
      9 N         139.4819  144.3476  164.1832 N.ar    1  UNL1       -0.2132
     10 C         140.6566  140.6726  167.8505 C.ar    1  UNL1        0.0060
     11 C         139.8777  140.6419  169.1320 C.ar    1  UNL1        0.0005
     12 C         140.4328  139.9303  170.3302 C.ar    1  UNL1        0.0000
     13 C         141.7668  139.2496  170.2468 C.ar    1  UNL1        0.0000
     14 C         142.5458  139.2803  168.9653 C.ar    1  UNL1        0.0000
     15 C         141.9906  139.9918  167.7672 C.ar    1  UNL1        0.0005
     16 C         139.7532  146.3105  161.6641 C.3     1  UNL1        0.1108
     17 N         138.5206  145.5801  162.1079 N.pl3   1  UNL1       -0.3013
     18 H         137.6308  145.9161  161.8536 H       1  UNL1        0.1497
     19 N         137.3363  140.5905  162.9460 N.pl3   1  UNL1       -0.3176
     20 H         136.5326  140.2991  163.4343 H       1  UNL1        0.1482
     21 C         137.8456  139.7821  161.7897 C.3     1  UNL1        0.0896
     22 C         138.0541  138.3045  161.9417 C.3     1  UNL1        0.0385
     23 C         138.7768  137.7686  163.1419 C.3     1  UNL1        0.0739
     24 N         140.2744  137.6844  163.1401 N.3     1  UNL1       -0.2703
     25 C         141.0338  137.8588  161.8584 C.3     1  UNL1        0.0897
     26 C         141.0126  137.4259  164.4201 C.3     1  UNL1        0.0897
@<TRIPOS>BOND
     1    16    17    1
     2    17     1    1
     3     1     2   ar
     4     2     3   ar
     5     3    19    1
     6    19    21    1
     7    21    22    1
     8    22    23    1
     9    23    24    1
    10    24    25    1
    11    24    26    1
    12     3     4   ar
    13     4     5   ar
    14     5     6   ar
    15     6    10    1
    16    10    11   ar
    17    11    12   ar
    18    12    13   ar
    19    13    14   ar
    20    14    15   ar
    21     6     7   ar
    22     7     8   ar
    23     8     9   ar
    24     9     1   ar
    25     8     4   ar
    26    15    10   ar
    27    17    18    1
    28    19    20    1
@<TRIPOS>MOLECULE
*****
 26 28 0 0 0
SMALL
GASTEIGER

@<TRIPOS>ATOM
      1 C         141.8872  144.7121  161.6824 C.ar    1  UNL1        0.2181
      2 N         143.2552  144.1689  161.9708 N.ar    1  UNL1       -0.1986
      3 C         143.5141  143.4287  163.2496 C.ar    1  UNL1        0.1388
      4 C         142.4048  143.2318  164.2399 C.ar    1  UNL1        0.0786
      5 S         142.3606  142.5494  165.5750 S.2     1  UNL1       -0.0826
      6 C         140.9652  142.6710  166.1116 C.ar    1  UNL1        0.0311
      7 C         140.1470  143.4285  165.1083 C.ar    1  UNL1        0.0263
      8 C         141.0367  143.7751  163.9515 C.ar    1  UNL1        0.0933
      9 N         140.7779  144.5153  162.6727 N.ar    1  UNL1       -0.2132
     10 C         140.4742  142.1300  167.4217 C.ar    1  UNL1        0.0060
     11 C         140.5349  142.9818  168.6549 C.ar    1  UNL1        0.0005
     12 C         140.0438  142.4407  169.9650 C.ar    1  UNL1        0.0000
     13 C         139.4921  141.0480  170.0418 C.ar    1  UNL1        0.0000
     14 C         139.4314  140.1963  168.8086 C.ar    1  UNL1        0.0000
     15 C         139.9224  140.7373  167.4985 C.ar    1  UNL1        0.0005
     16 C         140.5247  145.0079  159.4901 C.3     1  UNL1        0.1108
     17 N         141.6283  145.4523  160.4036 N.pl3   1  UNL1       -0.3013
     18 H         142.1827  146.2297  160.1639 H       1  UNL1        0.1497
     19 N         144.8822  142.8854  163.5380 N.pl3   1  UNL1       -0.3176
     20 H         145.5247  143.4203  164.0579 H       1  UNL1        0.1482
     21 C         145.2714  141.5272  163.0342 C.3     1  UNL1        0.0896
     22 C         145.1604  140.3331  163.9351 C.3     1  UNL1        0.0385
     23 C         144.1130  139.2915  163.6742 C.3     1  UNL1        0.0739
     24 N         143.1487  138.9096  164.7579 N.3     1  UNL1       -0.2703
     25 C         141.6717  139.0184  164.5200 C.3     1  UNL1        0.0897
     26 C         143.6614  138.4189  166.0794 C.3     1  UNL1        0.0897
@<TRIPOS>BOND
     1    16    17    1
     2    17     1    1
     3     1     2   ar
     4     2     3   ar
     5     3    19    1
     6    19    21    1
     7    21    22    1
     8    22    23    1
     9    23    24    1
    10    24    25    1
    11    24    26    1
    12     3     4   ar
    13     4     5   ar
    14     5     6   ar
    15     6    10    1
    16    10    11   ar
    17    11    12   ar
    18    12    13   ar
    19    13    14   ar
    20    14    15   ar
    21     6     7   ar
    22     7     8   ar
    23     8     9   ar
    24     9     1   ar
    25     8     4   ar
    26    15    10   ar
    27    17    18    1
    28    19    20    1
@<TRIPOS>MOLECULE
*****
 26 28 0 0 0
SMALL
GASTEIGER

@<TRIPOS>ATOM
      1 C         137.7657  140.8697  162.4299 C.ar    1  UNL1        0.2181
      2 N         137.7070  142.3509  162.2010 N.ar    1  UNL1       -0.1986
      3 C         138.3511  143.2873  163.1801 C.ar    1  UNL1        0.1388
      4 C         139.0539  142.7422  164.3880 C.ar    1  UNL1        0.0786
      5 S         139.7753  143.4149  165.5181 S.2     1  UNL1       -0.0826
      6 C         140.2799  142.3493  166.4454 C.ar    1  UNL1        0.0311
      7 C         139.8703  141.0181  165.8884 C.ar    1  UNL1        0.0263
      8 C         139.1126  141.2610  164.6169 C.ar    1  UNL1        0.0933
      9 N         138.4684  140.3247  163.6378 N.ar    1  UNL1       -0.2132
     10 C         141.0575  142.5752  167.7080 C.ar    1  UNL1        0.0060
     11 C         140.4112  143.2626  168.8741 C.ar    1  UNL1        0.0005
     12 C         141.1889  143.4885  170.1367 C.ar    1  UNL1        0.0000
     13 C         142.6129  143.0269  170.2333 C.ar    1  UNL1        0.0000
     14 C         143.2592  142.3395  169.0672 C.ar    1  UNL1        0.0000
     15 C         142.4814  142.1136  167.8046 C.ar    1  UNL1        0.0005
     16 C         137.4804  138.4769  161.4587 C.3     1  UNL1        0.1108
     17 N         137.1215  139.9333  161.4509 N.pl3   1  UNL1       -0.3013
     18 H         136.4633  140.2747  160.8033 H       1  UNL1        0.1497
     19 N         138.2924  144.7685  162.9511 N.pl3   1  UNL1       -0.3176
     20 H         137.5721  145.3015  163.3591 H       1  UNL1        0.1482
     21 C         139.3310  145.4377  162.1006 C.3     1  UNL1        0.0896
     22 C         140.7578  145.4888  162.5607 C.3     1  UNL1        0.0385
     23 C         141.7573  144.5127  162.0146 C.3     1  UNL1        0.0739
     24 N         143.1074  144.3839  162.6555 N.3     1  UNL1       -0.2703
     25 C         144.1617  143.5285  162.0179 C.3     1  UNL1        0.0897
     26 C         143.4030  145.1106  163.9340 C.3     1  UNL1        0.0897
@<TRIPOS>BOND
     1    16    17    1
     2    17     1    1
     3     1     2   ar
     4     2     3   ar
     5     3    19    1
     6    19    21    1
     7    21    22    1
     8    22    23    1
     9    23    24    1
    10    24    25    1
    11    24    26    1
    12     3     4   ar
    13     4     5   ar
    14     5     6   ar
    15     6    10    1
    16    10    11   ar
    17    11    12   ar
    18    12    13   ar
    19    13    14   ar
    20    14    15   ar
    21     6     7   ar
    22     7     8   ar
    23     8     9   ar
    24     9     1   ar
    25     8     4   ar
    26    15    10   ar
    27    17    18    1
    28    19    20    1
@<TRIPOS>MOLECULE
*****
 26 28 0 0 0
SMALL
GASTEIGER

@<TRIPOS>ATOM
      1 C         142.6957  138.1173  162.3088 C.ar    1  UNL1        0.2181
      2 N         144.0036  138.7835  162.6174 N.ar    1  UNL1       -0.1986
      3 C         144.1412  139.6331  163.8460 C.ar    1  UNL1        0.1388
      4 C         142.9706  139.8164  164.7658 C.ar    1  UNL1        0.0786
      5 S         142.8076  140.5895  166.0409 S.2     1  UNL1       -0.0826
      6 C         141.3988  140.4011  166.5203 C.ar    1  UNL1        0.0311
      7 C         140.6911  139.5116  165.5415 C.ar    1  UNL1        0.0263
      8 C         141.6626  139.1502  164.4572 C.ar    1  UNL1        0.0933
      9 N         141.5251  138.3007  163.2286 N.ar    1  UNL1       -0.2132
     10 C         140.8024  140.9974  167.7607 C.ar    1  UNL1        0.0060
     11 C         141.0690  142.4326  168.1059 C.ar    1  UNL1        0.0005
     12 C         140.4725  143.0289  169.3463 C.ar    1  UNL1        0.0000
     13 C         139.6094  142.1901  170.2415 C.ar    1  UNL1        0.0000
     14 C         139.3427  140.7549  169.8963 C.ar    1  UNL1        0.0000
     15 C         139.9392  140.1586  168.6559 C.ar    1  UNL1        0.0005
     16 C         142.8019  137.8634  159.7253 C.3     1  UNL1        0.1108
     17 N         142.5581  137.2677  161.0802 N.pl3   1  UNL1       -0.3013
     18 H         142.3079  136.3192  161.1631 H       1  UNL1        0.1497
     19 N         145.4493  140.2992  164.1546 N.pl3   1  UNL1       -0.3176
     20 H         146.1554  139.8021  164.6274 H       1  UNL1        0.1482
     21 C         145.6815  141.7228  163.7429 C.3     1  UNL1        0.0896
     22 C         144.9925  142.2746  162.5301 C.3     1  UNL1        0.0385
     23 C         144.4001  143.6521  162.5658 C.3     1  UNL1        0.0739
     24 N         143.0180  143.8604  163.1104 N.3     1  UNL1       -0.2703
     25 C         142.6566  145.1626  163.7611 C.3     1  UNL1        0.0897
     26 C         141.9974  142.7663  163.0042 C.3     1  UNL1        0.0897
@<TRIPOS>BOND
     1    16    17    1
     2    17     1    1
     3     1     2   ar
     4     2     3   ar
     5     3    19    1
     6    19    21    1
     7    21    22    1
     8    22    23    1
     9    23    24    1
    10    24    25    1
    11    24    26    1
    12     3     4   ar
    13     4     5   ar
    14     5     6   ar
    15     6    10    1
    16    10    11   ar
    17    11    12   ar
    18    12    13   ar
    19    13    14   ar
    20    14    15   ar
    21     6     7   ar
    22     7     8   ar
    23     8     9   ar
    24     9     1   ar
    25     8     4   ar
    26    15    10   ar
    27    17    18    1
    28    19    20    1
@<TRIPOS>MOLECULE
*****
 26 28 0 0 0
SMALL
GASTEIGER

@<TRIPOS>ATOM
      1 C         141.7564  138.0180  162.2468 C.ar    1  UNL1        0.2181
      2 N         140.3379  138.3279  161.8707 N.ar    1  UNL1       -0.1986
      3 C         139.4572  139.0821  162.8225 C.ar    1  UNL1        0.1388
      4 C         139.9953  139.5264  164.1502 C.ar    1  UNL1        0.0786
      5 S         139.3688  140.2803  165.2857 S.2     1  UNL1       -0.0826
      6 C         140.4003  140.4363  166.3635 C.ar    1  UNL1        0.0311
      7 C         141.6642  139.7789  165.8942 C.ar    1  UNL1        0.0263
      8 C         141.4139  139.2166  164.5263 C.ar    1  UNL1        0.0933
      9 N         142.2945  138.4624  163.5746 N.ar    1  UNL1       -0.2132
     10 C         140.2025  141.1283  167.6796 C.ar    1  UNL1        0.0060
     11 C         139.5555  140.3999  168.8201 C.ar    1  UNL1        0.0005
     12 C         139.3578  141.0920  170.1362 C.ar    1  UNL1        0.0000
     13 C         139.8071  142.5123  170.3117 C.ar    1  UNL1        0.0000
     14 C         140.4541  143.2406  169.1712 C.ar    1  UNL1        0.0000
     15 C         140.6518  142.5486  167.8551 C.ar    1  UNL1        0.0005
     16 C         142.8885  137.8033  159.9182 C.3     1  UNL1        0.1108
     17 N         142.6371  137.2638  161.2951 N.pl3   1  UNL1       -0.3013
     18 H         143.0501  136.4148  161.5742 H       1  UNL1        0.1497
     19 N         138.0385  139.3919  162.4463 N.pl3   1  UNL1       -0.3176
     20 H         137.3049  138.8320  162.7892 H       1  UNL1        0.1482
     21 C         137.7377  140.5547  161.5478 C.3     1  UNL1        0.0896
     22 C         138.3071  141.9077  161.8562 C.3     1  UNL1        0.0385
     23 C         137.6431  142.7866  162.8743 C.3     1  UNL1        0.0739
     24 N         138.3858  143.9518  163.4581 N.3     1  UNL1       -0.2703
     25 C         139.0024  144.9774  162.5537 C.3     1  UNL1        0.0897
     26 C         138.5120  144.0912  164.9462 C.3     1  UNL1        0.0897
@<TRIPOS>BOND
     1    16    17    1
     2    17     1    1
     3     1     2   ar
     4     2     3   ar
     5     3    19    1
     6    19    21    1
     7    21    22    1
     8    22    23    1
     9    23    24    1
    10    24    25    1
    11    24    26    1
    12     3     4   ar
    13     4     5   ar
    14     5     6   ar
    15     6    10    1
    16    10    11   ar
    17    11    12   ar
    18    12    13   ar
    19    13    14   ar
    20    14    15   ar
    21     6     7   ar
    22     7     8   ar
    23     8     9   ar
    24     9     1   ar
    25     8     4   ar
    26    15    10   ar
    27    17    18    1
    28    19    20    1
@<TRIPOS>MOLECULE
*****
 26 28 0 0 0
SMALL
GASTEIGER

@<TRIPOS>ATOM
      1 C         144.0896  143.0602  162.0078 C.ar    1  UNL1        0.2181
      2 N         143.2350  144.2922  161.9697 N.ar    1  UNL1       -0.1986
      3 C         142.2079  144.5259  163.0377 C.ar    1  UNL1        0.1388
      4 C         142.0355  143.5274  164.1437 C.ar    1  UNL1        0.0786
      5 S         141.1127  143.4882  165.3257 S.2     1  UNL1       -0.0826
      6 C         141.3971  142.2318  166.0942 C.ar    1  UNL1        0.0311
      7 C         142.4956  141.4946  165.3873 C.ar    1  UNL1        0.0263
      8 C         142.8902  142.2953  164.1818 C.ar    1  UNL1        0.0933
      9 N         143.9172  142.0617  163.1138 N.ar    1  UNL1       -0.2132
     10 C         140.7046  141.7902  167.3494 C.ar    1  UNL1        0.0060
     11 C         140.7535  142.6522  168.5759 C.ar    1  UNL1        0.0005
     12 C         140.0609  142.2105  169.8311 C.ar    1  UNL1        0.0000
     13 C         139.3195  140.9069  169.8597 C.ar    1  UNL1        0.0000
     14 C         139.2706  140.0449  168.6331 C.ar    1  UNL1        0.0000
     15 C         139.9632  140.4866  167.3779 C.ar    1  UNL1        0.0005
     16 C         144.6848  142.4525  159.5529 C.3     1  UNL1        0.1108
     17 N         145.1168  142.8265  160.9398 N.pl3   1  UNL1       -0.3013
     18 H         146.0743  142.9185  161.1492 H       1  UNL1        0.1497
     19 N         141.3532  145.7581  162.9996 N.pl3   1  UNL1       -0.3176
     20 H         141.6185  146.5571  163.5100 H       1  UNL1        0.1482
     21 C         140.0945  145.7728  162.1839 C.3     1  UNL1        0.0896
     22 C         139.5215  144.4870  161.6659 C.3     1  UNL1        0.0385
     23 C         138.5830  143.6865  162.5195 C.3     1  UNL1        0.0739
     24 N         138.6166  142.1877  162.4690 N.3     1  UNL1       -0.2703
     25 C         139.8646  141.4798  162.0316 C.3     1  UNL1        0.0897
     26 C         137.4021  141.3969  162.8558 C.3     1  UNL1        0.0897
@<TRIPOS>BOND
     1    16    17    1
     2    17     1    1
     3     1     2   ar
     4     2     3   ar
     5     3    19    1
     6    19    21    1
     7    21    22    1
     8    22    23    1
     9    23    24    1
    10    24    25    1
    11    24    26    1
    12     3     4   ar
    13     4     5   ar
    14     5     6   ar
    15     6    10    1
    16    10    11   ar
    17    11    12   ar
    18    12    13   ar
    19    13    14   ar
    20    14    15   ar
    21     6     7   ar
    22     7     8   ar
    23     8     9   ar
    24     9     1   ar
    25     8     4   ar
    26    15    10   ar
    27    17    18    1
    28    19    20    1
@<TRIPOS>MOLECULE
*****
 26 28 0 0 0
SMALL
GASTEIGER

@<TRIPOS>ATOM
      1 C         140.8655  144.8396  161.8603 C.ar    1  UNL1        0.2181
      2 N         142.3069  144.5962  161.5245 N.ar    1  UNL1       -0.1986
      3 C         143.1925  143.8759  162.4977 C.ar    1  UNL1        0.1388
      4 C         142.6365  143.3991  163.8067 C.ar    1  UNL1        0.0786
      5 S         143.2628  142.6665  164.9561 S.2     1  UNL1       -0.0826
      6 C         142.2084  142.4573  166.0022 C.ar    1  UNL1        0.0311
      7 C         140.9304  143.0604  165.4994 C.ar    1  UNL1        0.0263
      8 C         141.1949  143.6425  164.1425 C.ar    1  UNL1        0.0933
      9 N         140.3095  144.3628  163.1693 N.ar    1  UNL1       -0.2132
     10 C         142.3986  141.7661  167.3198 C.ar    1  UNL1        0.0060
     11 C         141.7616  140.4304  167.5649 C.ar    1  UNL1        0.0005
     12 C         141.9519  139.7393  168.8826 C.ar    1  UNL1        0.0000
     13 C         142.7790  140.3839  169.9551 C.ar    1  UNL1        0.0000
     14 C         143.4160  141.7196  169.7100 C.ar    1  UNL1        0.0000
     15 C         143.2258  142.4107  168.3923 C.ar    1  UNL1        0.0005
     16 C         140.2477  145.4612  159.4145 C.3     1  UNL1        0.1108
     17 N         139.9799  145.5599  160.8871 N.pl3   1  UNL1       -0.3013
     18 H         139.2231  146.0974  161.2149 H       1  UNL1        0.1497
     19 N         144.6341  143.6325  162.1619 N.pl3   1  UNL1       -0.3176
     20 H         145.2984  144.3462  162.2978 H       1  UNL1        0.1482
     21 C         145.0633  142.3017  161.6190 C.3     1  UNL1        0.0896
     22 C         144.0703  141.4214  160.9198 C.3     1  UNL1        0.0385
     23 C         143.2625  140.4309  161.7050 C.3     1  UNL1        0.0739
     24 N         143.9255  139.2209  162.2936 N.3     1  UNL1       -0.2703
     25 C         143.9912  137.9449  161.5078 C.3     1  UNL1        0.0897
     26 C         144.5227  139.2870  163.6680 C.3     1  UNL1        0.0897
@<TRIPOS>BOND
     1    16    17    1
     2    17     1    1
     3     1     2   ar
     4     2     3   ar
     5     3    19    1
     6    19    21    1
     7    21    22    1
     8    22    23    1
     9    23    24    1
    10    24    25    1
    11    24    26    1
    12     3     4   ar
    13     4     5   ar
    14     5     6   ar
    15     6    10    1
    16    10    11   ar
    17    11    12   ar
    18    12    13   ar
    19    13    14   ar
    20    14    15   ar
    21     6     7   ar
    22     7     8   ar
    23     8     9   ar
    24     9     1   ar
    25     8     4   ar
    26    15    10   ar
    27    17    18    1
    28    19    20    1
@<TRIPOS>MOLECULE
*****
 26 28 0 0 0
SMALL
GASTEIGER

@<TRIPOS>ATOM
      1 C         141.9908  138.8401  162.3170 C.ar    1  UNL1        0.2181
      2 N         141.7160  140.2156  161.7856 N.ar    1  UNL1       -0.1986
      3 C         141.2712  141.3044  162.7166 C.ar    1  UNL1        0.1388
      4 C         141.1013  141.0176  164.1791 C.ar    1  UNL1        0.0786
      5 S         140.6789  141.8830  165.3291 S.2     1  UNL1       -0.0826
      6 C         140.6926  141.0423  166.5713 C.ar    1  UNL1        0.0311
      7 C         141.1236  139.6574  166.1890 C.ar    1  UNL1        0.0263
      8 C         141.3761  139.6421  164.7105 C.ar    1  UNL1        0.0933
      9 N         141.8209  138.5533  163.7795 N.ar    1  UNL1       -0.2132
     10 C         140.3378  141.5053  167.9532 C.ar    1  UNL1        0.0060
     11 C         140.7208  142.8838  168.4038 C.ar    1  UNL1        0.0005
     12 C         140.3659  143.3468  169.7858 C.ar    1  UNL1        0.0000
     13 C         139.6280  142.4313  170.7171 C.ar    1  UNL1        0.0000
     14 C         139.2450  141.0528  170.2665 C.ar    1  UNL1        0.0000
     15 C         139.5999  140.5898  168.8846 C.ar    1  UNL1        0.0005
     16 C         143.8824  137.6316  161.0089 C.3     1  UNL1        0.1108
     17 N         142.4355  137.7513  161.3859 N.pl3   1  UNL1       -0.3013
     18 H         141.7778  137.1153  161.0224 H       1  UNL1        0.1497
     19 N         140.9964  142.6799  162.1851 N.pl3   1  UNL1       -0.3176
     20 H         141.0375  143.4576  162.7873 H       1  UNL1        0.1482
     21 C         140.6590  142.8704  160.7360 C.3     1  UNL1        0.0896
     22 C         139.2529  143.1999  160.3305 C.3     1  UNL1        0.0385
     23 C         138.1035  142.4413  160.9249 C.3     1  UNL1        0.0739
     24 N         137.7556  142.6200  162.3731 N.3     1  UNL1       -0.2703
     25 C         137.7324  143.9938  162.9748 C.3     1  UNL1        0.0897
     26 C         137.4308  141.4249  163.2193 C.3     1  UNL1        0.0897
@<TRIPOS>BOND
     1    16    17    1
     2    17     1    1
     3     1     2   ar
     4     2     3   ar
     5     3    19    1
     6    19    21    1
     7    21    22    1
     8    22    23    1
     9    23    24    1
    10    24    25    1
    11    24    26    1
    12     3     4   ar
    13     4     5   ar
    14     5     6   ar
    15     6    10    1
    16    10    11   ar
    17    11    12   ar
    18    12    13   ar
    19    13    14   ar
    20    14    15   ar
    21     6     7   ar
    22     7     8   ar
    23     8     9   ar
    24     9     1   ar
    25     8     4   ar
    26    15    10   ar
    27    17    18    1
    28    19    20    1
@<TRIPOS>MOLECULE
*****
 26 28 0 0 0
SMALL
GASTEIGER

@<TRIPOS>ATOM
      1 C         140.9635  142.8350  161.3740 C.ar    1  UNL1        0.2181
      2 N         141.6519  141.5032  161.4197 N.ar    1  UNL1       -0.1986
      3 C         141.8148  140.7875  162.7279 C.ar    1  UNL1        0.1388
      4 C         141.2892  141.4038  163.9904 C.ar    1  UNL1        0.0786
      5 S         141.3027  140.9376  165.4160 S.2     1  UNL1       -0.0826
      6 C         140.6226  141.9815  166.2514 C.ar    1  UNL1        0.0311
      7 C         140.1888  143.0927  165.3421 C.ar    1  UNL1        0.0263
      8 C         140.6007  142.7357  163.9447 C.ar    1  UNL1        0.0933
      9 N         140.4379  143.4513  162.6365 N.ar    1  UNL1       -0.2132
     10 C         140.4132  141.9241  167.7356 C.ar    1  UNL1        0.0060
     11 C         140.1183  140.6127  168.4014 C.ar    1  UNL1        0.0005
     12 C         139.9088  140.5555  169.8856 C.ar    1  UNL1        0.0000
     13 C         139.9942  141.8096  170.7041 C.ar    1  UNL1        0.0000
     14 C         140.2891  143.1210  170.0384 C.ar    1  UNL1        0.0000
     15 C         140.4986  143.1782  168.5541 C.ar    1  UNL1        0.0005
     16 C         140.7998  145.0502  160.0263 C.3     1  UNL1        0.1108
     17 N         140.8007  143.5507  160.0658 N.pl3   1  UNL1       -0.3013
     18 H         140.6944  143.0363  159.2331 H       1  UNL1        0.1497
     19 N         142.5033  139.4556  162.7735 N.pl3   1  UNL1       -0.3176
     20 H         141.9843  138.6286  162.6466 H       1  UNL1        0.1482
     21 C         143.9823  139.3836  163.0126 C.3     1  UNL1        0.0896
     22 C         144.8371  140.5968  162.7945 C.3     1  UNL1        0.0385
     23 C         145.1977  141.4783  163.9533 C.3     1  UNL1        0.0739
     24 N         144.6329  142.8650  164.0452 N.3     1  UNL1       -0.2703
     25 C         144.3724  143.4812  165.3877 C.3     1  UNL1        0.0897
     26 C         144.3288  143.6352  162.7945 C.3     1  UNL1        0.0897
@<TRIPOS>BOND
     1    16    17    1
     2    17     1    1
     3     1     2   ar
     4     2     3   ar
     5     3    19    1
     6    19    21    1
     7    21    22    1
     8    22    23    1
     9    23    24    1
    10    24    25    1
    11    24    26    1
    12     3     4   ar
    13     4     5   ar
    14     5     6   ar
    15     6    10    1
    16    10    11   ar
    17    11    12   ar
    18    12    13   ar
    19    13    14   ar
    20    14    15   ar
    21     6     7   ar
    22     7     8   ar
    23     8     9   ar
    24     9     1   ar
    25     8     4   ar
    26    15    10   ar
    27    17    18    1
    28    19    20    1
