@<TRIPOS>MOLECULE
*****
 29 32 0 0 0
SMALL
GASTEIGER

@<TRIPOS>ATOM
      1 N         143.4161  142.4599  166.4455 N.3     1  UNL1       -0.2724
      2 C         143.5066  142.6110  167.9351 C.3     1  UNL1        0.0760
      3 C         142.4713  141.9788  168.8173 C.3     1  UNL1        0.0619
      4 C         141.3454  141.1955  168.2100 C.3     1  UNL1        0.1614
      5 C         141.2549  141.0444  166.7204 C.3     1  UNL1        0.0619
      6 C         142.2902  141.6766  165.8381 C.3     1  UNL1        0.0760
      7 O         141.4359  141.3466  169.6996 O.3     1  UNL1       -0.4373
      8 C         140.4006  140.7144  170.5819 C.2     1  UNL1        0.4065
      9 O         140.4911  140.8656  172.0716 O.2     1  UNL1       -0.2260
     10 N         139.2747  139.9312  169.9745 N.am    1  UNL1       -0.2352
     11 C         139.1842  139.7800  168.4850 C.ar    1  UNL1        0.1358
     12 N         138.0583  138.9967  167.8776 N.ar    1  UNL1       -0.2291
     13 C         137.9678  138.8456  166.3879 C.ar    1  UNL1        0.1003
     14 C         139.0031  139.4778  165.5057 C.ar    1  UNL1        0.0206
     15 C         140.1290  140.2611  166.1130 C.ar    1  UNL1        0.0034
     16 C         140.2196  140.4122  167.6026 C.ar    1  UNL1        0.0456
     17 H         138.5952  139.5162  170.5536 H       1  UNL1        0.1596
     18 C         144.4515  143.0920  165.5631 C.3     1  UNL1        0.0722
     19 C         143.7940  142.9655  159.6007 C.2     1  UNL1        0.4049
     20 O         142.8796  143.9447  158.9260 O.2     1  UNL1       -0.2262
     21 N         143.9583  142.9972  161.0913 N.am    1  UNL1       -0.2460
     22 C         144.8727  142.0180  161.7659 C.3     1  UNL1        0.0968
     23 C         145.0371  142.0496  163.2566 C.3     1  UNL1        0.0231
     24 C         144.2871  143.0604  164.0725 C.3     1  UNL1        0.0194
     25 C         143.3727  144.0396  163.3978 C.3     1  UNL1        0.0231
     26 C         143.2083  144.0080  161.9072 C.3     1  UNL1        0.0968
     27 O         144.5440  141.9547  158.7847 O.3     1  UNL1       -0.4345
     28 C         143.5103  139.6235  159.2816 C.3     1  UNL1        0.0513
     29 C         143.8513  140.7125  158.3081 C.3     1  UNL1        0.2102
@<TRIPOS>BOND
     1    28    29    1
     2    29    27    1
     3    27    19    1
     4    19    20    2
     5    19    21   am
     6    21    22    1
     7    22    23    1
     8    23    24    1
     9    24    18    1
    10    18     1    1
    11     1     2    1
    12     2     3    1
    13     3     4    1
    14     4     5    1
    15     5     6    1
    16     4     7    1
    17     7     8    1
    18     8     9    2
    19     8    10   am
    20    10    11    1
    21    11    12   ar
    22    12    13   ar
    23    13    14   ar
    24    14    15   ar
    25    15    16   ar
    26    24    25    1
    27    25    26    1
    28    26    21    1
    29     6     1    1
    30    16    11   ar
    31    16     4    1
    32    10    17    1
@<TRIPOS>MOLECULE
*****
 29 32 0 0 0
SMALL
GASTEIGER

@<TRIPOS>ATOM
      1 N         143.1868  141.9025  166.0339 N.3     1  UNL1       -0.2724
      2 C         143.3473  142.4542  167.4194 C.3     1  UNL1        0.0760
      3 C         142.3420  142.1195  168.4811 C.3     1  UNL1        0.0619
      4 C         141.1760  141.2331  168.1572 C.3     1  UNL1        0.1614
      5 C         141.0155  140.6815  166.7717 C.3     1  UNL1        0.0619
      6 C         142.0208  141.0162  165.7100 C.3     1  UNL1        0.0760
      7 O         141.3366  141.7849  169.5429 O.3     1  UNL1       -0.4373
      8 C         140.3312  141.4502  170.6045 C.2     1  UNL1        0.4065
      9 O         140.4918  142.0019  171.9902 O.2     1  UNL1       -0.2260
     10 N         139.1653  140.5638  170.2806 N.am    1  UNL1       -0.2352
     11 C         139.0047  140.0121  168.8951 C.ar    1  UNL1        0.1358
     12 N         137.8388  139.1257  168.5712 N.ar    1  UNL1       -0.2291
     13 C         137.6782  138.5740  167.1856 C.ar    1  UNL1        0.1003
     14 C         138.6836  138.9087  166.1239 C.ar    1  UNL1        0.0206
     15 C         139.8495  139.7951  166.4478 C.ar    1  UNL1        0.0034
     16 C         140.0101  140.3468  167.8333 C.ar    1  UNL1        0.0456
     17 H         138.5054  140.3441  170.9775 H       1  UNL1        0.1596
     18 C         144.1922  142.2372  164.9721 C.3     1  UNL1        0.0722
     19 C         142.3467  143.9701  159.5324 C.2     1  UNL1        0.4049
     20 O         142.5117  143.0530  158.3570 O.2     1  UNL1       -0.2262
     21 N         142.8080  143.5369  160.8923 N.am    1  UNL1       -0.2460
     22 C         142.6430  144.4541  162.0677 C.3     1  UNL1        0.0968
     23 C         143.1044  144.0209  163.4277 C.3     1  UNL1        0.0231
     24 C         143.7308  142.6705  163.6122 C.3     1  UNL1        0.0194
     25 C         143.8958  141.7533  162.4368 C.3     1  UNL1        0.0231
     26 C         143.4344  142.1865  161.0769 C.3     1  UNL1        0.0968
     27 O         141.7203  145.3206  159.3479 O.3     1  UNL1       -0.4345
     28 C         140.3097  145.9120  157.2477 C.3     1  UNL1        0.0513
     29 C         140.3876  145.4429  158.6704 C.3     1  UNL1        0.2102
@<TRIPOS>BOND
     1    28    29    1
     2    29    27    1
     3    27    19    1
     4    19    20    2
     5    19    21   am
     6    21    22    1
     7    22    23    1
     8    23    24    1
     9    24    18    1
    10    18     1    1
    11     1     2    1
    12     2     3    1
    13     3     4    1
    14     4     5    1
    15     5     6    1
    16     4     7    1
    17     7     8    1
    18     8     9    2
    19     8    10   am
    20    10    11    1
    21    11    12   ar
    22    12    13   ar
    23    13    14   ar
    24    14    15   ar
    25    15    16   ar
    26    24    25    1
    27    25    26    1
    28    26    21    1
    29     6     1    1
    30    16    11   ar
    31    16     4    1
    32    10    17    1
@<TRIPOS>MOLECULE
*****
 29 32 0 0 0
SMALL
GASTEIGER

@<TRIPOS>ATOM
      1 N         143.1837  142.0536  166.0915 N.3     1  UNL1       -0.2724
      2 C         143.3544  142.4332  167.5326 C.3     1  UNL1        0.0760
      3 C         142.3570  141.9710  168.5531 C.3     1  UNL1        0.0619
      4 C         141.1889  141.1292  168.1325 C.3     1  UNL1        0.1614
      5 C         141.0182  140.7496  166.6915 C.3     1  UNL1        0.0619
      6 C         142.0156  141.2118  165.6710 C.3     1  UNL1        0.0760
      7 O         141.3596  141.5088  169.5737 O.3     1  UNL1       -0.4373
      8 C         140.3622  141.0466  170.5942 C.2     1  UNL1        0.4065
      9 O         140.5329  141.4262  172.0354 O.2     1  UNL1       -0.2260
     10 N         139.1941  140.2048  170.1737 N.am    1  UNL1       -0.2352
     11 C         139.0234  139.8252  168.7326 C.ar    1  UNL1        0.1358
     12 N         137.8552  138.9834  168.3121 N.ar    1  UNL1       -0.2291
     13 C         137.6846  138.6038  166.8709 C.ar    1  UNL1        0.1003
     14 C         138.6820  139.0659  165.8504 C.ar    1  UNL1        0.0206
     15 C         139.8501  139.9078  166.2710 C.ar    1  UNL1        0.0034
     16 C         140.0208  140.2874  167.7120 C.ar    1  UNL1        0.0456
     17 H         138.5394  139.9015  170.8435 H       1  UNL1        0.1596
     18 C         144.1812  142.5158  165.0709 C.3     1  UNL1        0.0722
     19 C         143.6695  140.7468  159.3605 C.2     1  UNL1        0.4049
     20 O         144.1094  139.3699  158.9596 O.2     1  UNL1       -0.2262
     21 N         143.7974  141.1890  160.7881 N.am    1  UNL1       -0.2460
     22 C         143.3576  142.5659  161.1890 C.3     1  UNL1        0.0968
     23 C         143.4855  143.0082  162.6166 C.3     1  UNL1        0.0231
     24 C         144.0532  142.0735  163.6433 C.3     1  UNL1        0.0194
     25 C         144.4931  140.6966  163.2424 C.3     1  UNL1        0.0231
     26 C         144.3652  140.2544  161.8148 C.3     1  UNL1        0.0968
     27 O         143.1017  141.6814  158.3338 O.3     1  UNL1       -0.4345
     28 C         145.4953  142.4560  157.6849 C.3     1  UNL1        0.0513
     29 C         144.0192  142.4377  157.4192 C.3     1  UNL1        0.2102
@<TRIPOS>BOND
     1    28    29    1
     2    29    27    1
     3    27    19    1
     4    19    20    2
     5    19    21   am
     6    21    22    1
     7    22    23    1
     8    23    24    1
     9    24    18    1
    10    18     1    1
    11     1     2    1
    12     2     3    1
    13     3     4    1
    14     4     5    1
    15     5     6    1
    16     4     7    1
    17     7     8    1
    18     8     9    2
    19     8    10   am
    20    10    11    1
    21    11    12   ar
    22    12    13   ar
    23    13    14   ar
    24    14    15   ar
    25    15    16   ar
    26    24    25    1
    27    25    26    1
    28    26    21    1
    29     6     1    1
    30    16    11   ar
    31    16     4    1
    32    10    17    1
@<TRIPOS>MOLECULE
*****
 29 32 0 0 0
SMALL
GASTEIGER

@<TRIPOS>ATOM
      1 N         140.6098  140.3383  165.1017 N.3     1  UNL1       -0.2724
      2 C         139.3965  139.6909  165.7007 C.3     1  UNL1        0.0760
      3 C         139.1549  139.7739  167.1788 C.3     1  UNL1        0.0619
      4 C         140.1264  140.5042  168.0578 C.3     1  UNL1        0.1614
      5 C         141.3397  141.1516  167.4588 C.3     1  UNL1        0.0619
      6 C         141.5814  141.0686  165.9807 C.3     1  UNL1        0.0760
      7 O         138.9131  139.8568  168.6569 O.3     1  UNL1       -0.4373
      8 C         138.6714  139.9397  170.1349 C.2     1  UNL1        0.4065
      9 O         137.4581  139.2923  170.7340 O.2     1  UNL1       -0.2260
     10 N         139.6430  140.6701  171.0139 N.am    1  UNL1       -0.2352
     11 C         140.8562  141.3175  170.4149 C.ar    1  UNL1        0.1358
     12 N         141.8278  142.0478  171.2940 N.ar    1  UNL1       -0.2291
     13 C         143.0411  142.6952  170.6949 C.ar    1  UNL1        0.1003
     14 C         143.2828  142.6122  169.2168 C.ar    1  UNL1        0.0206
     15 C         142.3112  141.8819  168.3378 C.ar    1  UNL1        0.0034
     16 C         141.0980  141.2345  168.9368 C.ar    1  UNL1        0.0456
     17 H         139.4843  140.7245  171.9841 H       1  UNL1        0.1596
     18 C         140.8515  140.2554  163.6236 C.3     1  UNL1        0.0722
     19 C         140.7299  145.2357  160.2798 C.2     1  UNL1        0.4049
     20 O         139.5805  146.1921  160.4002 O.2     1  UNL1       -0.2262
     21 N         140.7603  143.9906  161.1157 N.am    1  UNL1       -0.2460
     22 C         141.9096  143.0344  160.9953 C.3     1  UNL1        0.0968
     23 C         141.9401  141.7892  161.8313 C.3     1  UNL1        0.0231
     24 C         140.8211  141.5004  162.7876 C.3     1  UNL1        0.0194
     25 C         139.6718  142.4568  162.9080 C.3     1  UNL1        0.0231
     26 C         139.6414  143.7019  162.0721 C.3     1  UNL1        0.0968
     27 O         141.8488  145.5245  159.3234 O.3     1  UNL1       -0.4345
     28 C         140.5169  146.0262  157.1498 C.3     1  UNL1        0.0513
     29 C         141.6454  145.3290  157.8501 C.3     1  UNL1        0.2102
@<TRIPOS>BOND
     1    28    29    1
     2    29    27    1
     3    27    19    1
     4    19    20    2
     5    19    21   am
     6    21    22    1
     7    22    23    1
     8    23    24    1
     9    24    18    1
    10    18     1    1
    11     1     2    1
    12     2     3    1
    13     3     4    1
    14     4     5    1
    15     5     6    1
    16     4     7    1
    17     7     8    1
    18     8     9    2
    19     8    10   am
    20    10    11    1
    21    11    12   ar
    22    12    13   ar
    23    13    14   ar
    24    14    15   ar
    25    15    16   ar
    26    24    25    1
    27    25    26    1
    28    26    21    1
    29     6     1    1
    30    16    11   ar
    31    16     4    1
    32    10    17    1
@<TRIPOS>MOLECULE
*****
 29 32 0 0 0
SMALL
GASTEIGER

@<TRIPOS>ATOM
      1 N         140.6668  140.6382  163.3954 N.3     1  UNL1       -0.2724
      2 C         139.8667  141.8742  163.6820 C.3     1  UNL1        0.0760
      3 C         140.0121  143.0819  162.8044 C.3     1  UNL1        0.0619
      4 C         140.9577  143.0537  161.6403 C.3     1  UNL1        0.1614
      5 C         141.7578  141.8177  161.3538 C.3     1  UNL1        0.0619
      6 C         141.6123  140.6100  162.2313 C.3     1  UNL1        0.0760
      7 O         140.1575  144.2898  161.9268 O.3     1  UNL1       -0.4373
      8 C         140.3030  145.4975  161.0492 C.2     1  UNL1        0.4065
      9 O         139.5028  146.7336  161.3357 O.2     1  UNL1       -0.2260
     10 N         141.2485  145.4693  159.8851 N.am    1  UNL1       -0.2352
     11 C         142.0486  144.2333  159.5986 C.ar    1  UNL1        0.1358
     12 N         142.9942  144.2051  158.4345 N.ar    1  UNL1       -0.2291
     13 C         143.7943  142.9690  158.1480 C.ar    1  UNL1        0.1003
     14 C         143.6489  141.7613  159.0255 C.ar    1  UNL1        0.0206
     15 C         142.7033  141.7895  160.1897 C.ar    1  UNL1        0.0034
     16 C         141.9032  143.0255  160.4762 C.ar    1  UNL1        0.0456
     17 H         141.3439  146.2620  159.3091 H       1  UNL1        0.1596
     18 C         140.5214  139.4304  164.2730 C.3     1  UNL1        0.0722
     19 C         139.2520  140.0911  170.0998 C.2     1  UNL1        0.4049
     20 O         137.8623  139.8276  170.5993 O.2     1  UNL1       -0.2262
     21 N         139.5694  139.9259  168.6432 N.am    1  UNL1       -0.2460
     22 C         140.9590  140.1893  168.1438 C.3     1  UNL1        0.0968
     23 C         141.2764  140.0242  166.6870 C.3     1  UNL1        0.0231
     24 C         140.2041  139.5956  165.7297 C.3     1  UNL1        0.0194
     25 C         138.8144  139.3321  166.2292 C.3     1  UNL1        0.0231
     26 C         138.4970  139.4973  167.6859 C.3     1  UNL1        0.0968
     27 O         140.3244  140.5197  171.0571 O.3     1  UNL1       -0.4345
     28 C         139.8793  143.0076  170.4552 C.3     1  UNL1        0.0513
     29 C         140.6899  141.9698  171.1736 C.3     1  UNL1        0.2102
@<TRIPOS>BOND
     1    28    29    1
     2    29    27    1
     3    27    19    1
     4    19    20    2
     5    19    21   am
     6    21    22    1
     7    22    23    1
     8    23    24    1
     9    24    18    1
    10    18     1    1
    11     1     2    1
    12     2     3    1
    13     3     4    1
    14     4     5    1
    15     5     6    1
    16     4     7    1
    17     7     8    1
    18     8     9    2
    19     8    10   am
    20    10    11    1
    21    11    12   ar
    22    12    13   ar
    23    13    14   ar
    24    14    15   ar
    25    15    16   ar
    26    24    25    1
    27    25    26    1
    28    26    21    1
    29     6     1    1
    30    16    11   ar
    31    16     4    1
    32    10    17    1
@<TRIPOS>MOLECULE
*****
 29 32 0 0 0
SMALL
GASTEIGER

@<TRIPOS>ATOM
      1 N         143.0701  140.1600  164.7581 N.3     1  UNL1       -0.2724
      2 C         143.6106  138.9618  165.4807 C.3     1  UNL1        0.0760
      3 C         143.3632  138.7981  166.9511 C.3     1  UNL1        0.0619
      4 C         142.5752  139.8325  167.6988 C.3     1  UNL1        0.1614
      5 C         142.0347  141.0307  166.9761 C.3     1  UNL1        0.0619
      6 C         142.2822  141.1944  165.5058 C.3     1  UNL1        0.0760
      7 O         143.1157  138.6343  168.4215 O.3     1  UNL1       -0.4373
      8 C         142.8682  138.4706  169.8918 C.2     1  UNL1        0.4065
      9 O         143.4087  137.2724  170.6145 O.2     1  UNL1       -0.2260
     10 N         142.0802  139.5050  170.6395 N.am    1  UNL1       -0.2352
     11 C         141.5397  140.7032  169.9169 C.ar    1  UNL1        0.1358
     12 N         140.7518  141.7376  170.6646 N.ar    1  UNL1       -0.2291
     13 C         140.2113  142.9358  169.9419 C.ar    1  UNL1        0.1003
     14 C         140.4587  143.0995  168.4716 C.ar    1  UNL1        0.0206
     15 C         141.2467  142.0651  167.7239 C.ar    1  UNL1        0.0034
     16 C         141.7872  140.8670  168.4465 C.ar    1  UNL1        0.0456
     17 H         141.9178  139.3975  171.6045 H       1  UNL1        0.1596
     18 C         143.3176  140.3238  163.2877 C.3     1  UNL1        0.0722
     19 C         139.5351  143.5750  159.9528 C.2     1  UNL1        0.4049
     20 O         138.2556  142.9659  159.4608 O.2     1  UNL1       -0.2262
     21 N         140.4807  142.7622  160.7865 N.am    1  UNL1       -0.2460
     22 C         141.7601  143.3713  161.2784 C.3     1  UNL1        0.0968
     23 C         142.7058  142.5584  162.1122 C.3     1  UNL1        0.0231
     24 C         142.3720  141.1366  162.4540 C.3     1  UNL1        0.0194
     25 C         141.0925  140.5275  161.9620 C.3     1  UNL1        0.0231
     26 C         140.1469  141.3403  161.1283 C.3     1  UNL1        0.0968
     27 O         139.8689  144.9968  159.6110 O.3     1  UNL1       -0.4345
     28 C         141.7583  145.7029  157.9734 C.3     1  UNL1        0.0513
     29 C         140.3227  145.3484  158.2251 C.3     1  UNL1        0.2102
@<TRIPOS>BOND
     1    28    29    1
     2    29    27    1
     3    27    19    1
     4    19    20    2
     5    19    21   am
     6    21    22    1
     7    22    23    1
     8    23    24    1
     9    24    18    1
    10    18     1    1
    11     1     2    1
    12     2     3    1
    13     3     4    1
    14     4     5    1
    15     5     6    1
    16     4     7    1
    17     7     8    1
    18     8     9    2
    19     8    10   am
    20    10    11    1
    21    11    12   ar
    22    12    13   ar
    23    13    14   ar
    24    14    15   ar
    25    15    16   ar
    26    24    25    1
    27    25    26    1
    28    26    21    1
    29     6     1    1
    30    16    11   ar
    31    16     4    1
    32    10    17    1
@<TRIPOS>MOLECULE
*****
 29 32 0 0 0
SMALL
GASTEIGER

@<TRIPOS>ATOM
      1 N         138.8962  138.8693  162.8574 N.3     1  UNL1       -0.2724
      2 C         138.1014  138.3499  161.6962 C.3     1  UNL1        0.0760
      3 C         137.9132  139.2011  160.4756 C.3     1  UNL1        0.0619
      4 C         138.5199  140.5717  160.4162 C.3     1  UNL1        0.1614
      5 C         139.3146  141.0911  161.5774 C.3     1  UNL1        0.0619
      6 C         139.5028  140.2399  162.7980 C.3     1  UNL1        0.0760
      7 O         137.7250  140.0524  159.2548 O.3     1  UNL1       -0.4373
      8 C         137.5369  140.9036  158.0342 C.2     1  UNL1        0.4065
      9 O         136.7421  140.3842  156.8729 O.2     1  UNL1       -0.2260
     10 N         138.1435  142.2741  157.9748 N.am    1  UNL1       -0.2352
     11 C         138.9383  142.7935  159.1361 C.ar    1  UNL1        0.1358
     12 N         139.5449  144.1641  159.0767 N.ar    1  UNL1       -0.2291
     13 C         140.3398  144.6834  160.2380 C.ar    1  UNL1        0.1003
     14 C         140.5279  143.8322  161.4586 C.ar    1  UNL1        0.0206
     15 C         139.9213  142.4616  161.5180 C.ar    1  UNL1        0.0034
     16 C         139.1265  141.9423  160.3568 C.ar    1  UNL1        0.0456
     17 H         138.0200  142.8328  157.1736 H       1  UNL1        0.1596
     18 C         139.0843  138.0181  164.0782 C.3     1  UNL1        0.0722
     19 C         139.8068  140.5933  169.4490 C.2     1  UNL1        0.4049
     20 O         138.6431  140.7077  170.3886 O.2     1  UNL1       -0.2262
     21 N         139.6262  139.9495  168.1063 N.am    1  UNL1       -0.2460
     22 C         140.7899  139.8351  167.1668 C.3     1  UNL1        0.0968
     23 C         140.6093  139.1913  165.8240 C.3     1  UNL1        0.0231
     24 C         139.2650  138.6619  165.4209 C.3     1  UNL1        0.0194
     25 C         138.1012  138.7763  166.3604 C.3     1  UNL1        0.0231
     26 C         138.2819  139.4201  167.7031 C.3     1  UNL1        0.0968
     27 O         141.1511  141.1227  169.8522 O.3     1  UNL1       -0.4345
     28 C         140.4002  143.5946  169.5767 C.3     1  UNL1        0.0513
     29 C         141.4903  142.5650  169.6179 C.3     1  UNL1        0.2102
@<TRIPOS>BOND
     1    28    29    1
     2    29    27    1
     3    27    19    1
     4    19    20    2
     5    19    21   am
     6    21    22    1
     7    22    23    1
     8    23    24    1
     9    24    18    1
    10    18     1    1
    11     1     2    1
    12     2     3    1
    13     3     4    1
    14     4     5    1
    15     5     6    1
    16     4     7    1
    17     7     8    1
    18     8     9    2
    19     8    10   am
    20    10    11    1
    21    11    12   ar
    22    12    13   ar
    23    13    14   ar
    24    14    15   ar
    25    15    16   ar
    26    24    25    1
    27    25    26    1
    28    26    21    1
    29     6     1    1
    30    16    11   ar
    31    16     4    1
    32    10    17    1
@<TRIPOS>MOLECULE
*****
 29 32 0 0 0
SMALL
GASTEIGER

@<TRIPOS>ATOM
      1 N         140.3059  139.5008  164.9452 N.3     1  UNL1       -0.2724
      2 C         139.0973  139.0107  165.6862 C.3     1  UNL1        0.0760
      3 C         138.9218  139.3435  167.1382 C.3     1  UNL1        0.0619
      4 C         139.9549  140.1665  167.8492 C.3     1  UNL1        0.1614
      5 C         141.1635  140.6565  167.1082 C.3     1  UNL1        0.0619
      6 C         141.3390  140.3237  165.6562 C.3     1  UNL1        0.0760
      7 O         138.7463  139.6764  168.5903 O.3     1  UNL1       -0.4373
      8 C         138.5708  140.0092  170.0423 C.2     1  UNL1        0.4065
      9 O         137.3622  139.5191  170.7834 O.2     1  UNL1       -0.2260
     10 N         139.6039  140.8321  170.7533 N.am    1  UNL1       -0.2352
     11 C         140.8125  141.3222  170.0123 C.ar    1  UNL1        0.1358
     12 N         141.8456  142.1451  170.7233 N.ar    1  UNL1       -0.2291
     13 C         143.0542  142.6352  169.9822 C.ar    1  UNL1        0.1003
     14 C         143.2297  142.3024  168.5302 C.ar    1  UNL1        0.0206
     15 C         142.1966  141.4794  167.8192 C.ar    1  UNL1        0.0034
     16 C         140.9880  140.9894  168.5602 C.ar    1  UNL1        0.0456
     17 H         139.4887  141.0506  171.7063 H       1  UNL1        0.1596
     18 C         140.4814  139.1679  163.4931 C.3     1  UNL1        0.0722
     19 C         143.1416  143.0925  159.8160 C.2     1  UNL1        0.4049
     20 O         144.3878  142.7027  159.0777 O.2     1  UNL1       -0.2262
     21 N         142.4765  142.1113  160.7353 N.am    1  UNL1       -0.2460
     22 C         141.2303  142.5011  161.4735 C.3     1  UNL1        0.0968
     23 C         140.5653  141.5200  162.3928 C.3     1  UNL1        0.0231
     24 C         141.1464  140.1491  162.5739 C.3     1  UNL1        0.0194
     25 C         142.3927  139.7593  161.8356 C.3     1  UNL1        0.0231
     26 C         143.0577  140.7404  160.9163 C.3     1  UNL1        0.0968
     27 O         142.5604  144.4634  159.6349 O.3     1  UNL1       -0.4345
     28 C         140.3176  145.3137  158.6364 C.3     1  UNL1        0.0513
     29 C         141.6988  144.7614  158.4437 C.3     1  UNL1        0.2102
@<TRIPOS>BOND
     1    28    29    1
     2    29    27    1
     3    27    19    1
     4    19    20    2
     5    19    21   am
     6    21    22    1
     7    22    23    1
     8    23    24    1
     9    24    18    1
    10    18     1    1
    11     1     2    1
    12     2     3    1
    13     3     4    1
    14     4     5    1
    15     5     6    1
    16     4     7    1
    17     7     8    1
    18     8     9    2
    19     8    10   am
    20    10    11    1
    21    11    12   ar
    22    12    13   ar
    23    13    14   ar
    24    14    15   ar
    25    15    16   ar
    26    24    25    1
    27    25    26    1
    28    26    21    1
    29     6     1    1
    30    16    11   ar
    31    16     4    1
    32    10    17    1
@<TRIPOS>MOLECULE
*****
 29 32 0 0 0
SMALL
GASTEIGER

@<TRIPOS>ATOM
      1 N         139.3824  138.5762  164.7808 N.3     1  UNL1       -0.2724
      2 C         138.2840  138.2450  165.7470 C.3     1  UNL1        0.0760
      3 C         138.3113  138.8104  167.1361 C.3     1  UNL1        0.0619
      4 C         139.4371  139.7070  167.5589 C.3     1  UNL1        0.1614
      5 C         140.5356  140.0381  166.5926 C.3     1  UNL1        0.0619
      6 C         140.5082  139.4728  165.2036 C.3     1  UNL1        0.0760
      7 O         138.3386  139.3758  168.5252 O.3     1  UNL1       -0.4373
      8 C         138.3660  139.9412  169.9143 C.2     1  UNL1        0.4065
      9 O         137.2675  139.6100  170.8806 O.2     1  UNL1       -0.2260
     10 N         139.4918  140.8377  170.3371 N.am    1  UNL1       -0.2352
     11 C         140.5902  141.1689  169.3708 C.ar    1  UNL1        0.1358
     12 N         141.7160  142.0655  169.7937 N.ar    1  UNL1       -0.2291
     13 C         142.8145  142.3967  168.8273 C.ar    1  UNL1        0.1003
     14 C         142.7871  141.8313  167.4383 C.ar    1  UNL1        0.0206
     15 C         141.6614  140.9347  167.0154 C.ar    1  UNL1        0.0034
     16 C         140.5629  140.6035  167.9817 C.ar    1  UNL1        0.0456
     17 H         139.5097  141.2088  171.2488 H       1  UNL1        0.1596
     18 C         139.3551  138.0108  163.3916 C.3     1  UNL1        0.0722
     19 C         142.9407  140.2888  159.1544 C.2     1  UNL1        0.4049
     20 O         144.1668  139.5381  158.7262 O.2     1  UNL1       -0.2262
     21 N         142.0443  139.7193  160.2137 N.am    1  UNL1       -0.2460
     22 C         140.8184  140.4700  160.6418 C.3     1  UNL1        0.0968
     23 C         139.9219  139.9005  161.7012 C.3     1  UNL1        0.0231
     24 C         140.2515  138.5803  162.3323 C.3     1  UNL1        0.0194
     25 C         141.4776  137.8296  161.9041 C.3     1  UNL1        0.0231
     26 C         142.3739  138.3991  160.8449 C.3     1  UNL1        0.0968
     27 O         142.6111  141.6091  158.5233 O.3     1  UNL1       -0.4345
     28 C         143.9380  142.8353  160.3903 C.3     1  UNL1        0.0513
     29 C         143.1435  142.8788  159.1187 C.3     1  UNL1        0.2102
@<TRIPOS>BOND
     1    28    29    1
     2    29    27    1
     3    27    19    1
     4    19    20    2
     5    19    21   am
     6    21    22    1
     7    22    23    1
     8    23    24    1
     9    24    18    1
    10    18     1    1
    11     1     2    1
    12     2     3    1
    13     3     4    1
    14     4     5    1
    15     5     6    1
    16     4     7    1
    17     7     8    1
    18     8     9    2
    19     8    10   am
    20    10    11    1
    21    11    12   ar
    22    12    13   ar
    23    13    14   ar
    24    14    15   ar
    25    15    16   ar
    26    24    25    1
    27    25    26    1
    28    26    21    1
    29     6     1    1
    30    16    11   ar
    31    16     4    1
    32    10    17    1
