@<TRIPOS>MOLECULE
*****
 45 49 0 0 0
SMALL
GASTEIGER

@<TRIPOS>ATOM
      1 C         139.1415  139.3080  166.2890 C.ar    1  UNL1        0.2006
      2 N         139.8301  140.5757  165.8785 N.ar    1  UNL1       -0.1999
      3 C         140.2043  141.5951  166.9135 C.ar    1  UNL1        0.1391
      4 C         139.8897  141.3466  168.3589 C.ar    1  UNL1        0.0827
      5 C         140.1352  142.1616  169.5940 C.ar    1  UNL1        0.0866
      6 C         140.8008  143.5048  169.6461 C.3     1  UNL1        0.0542
      7 N         139.5983  141.3975  170.7678 N.ar    1  UNL1       -0.1508
      8 N         139.0209  140.1103  170.2582 N.ar    1  UNL1       -0.1305
      9 C         139.2010  140.0788  168.7694 C.ar    1  UNL1        0.1679
     10 N         138.8269  139.0595  167.7344 N.ar    1  UNL1       -0.3104
     11 H         138.3749  138.2274  168.0038 H       1  UNL1        0.1701
     12 N         138.7674  138.2887  165.2540 N.pl3   1  UNL1       -0.2816
     13 H         138.2873  137.4711  165.5193 H       1  UNL1        0.1551
     14 C         137.4431  139.8633  160.4825 C.3     1  UNL1        0.0307
     15 C         138.4625  139.3024  161.4291 C.ar    1  UNL1       -0.0244
     16 C         138.1052  139.0760  162.8682 C.ar    1  UNL1        0.0132
     17 C         139.1247  138.5151  163.8149 C.ar    1  UNL1        0.0845
     18 C         140.5015  138.1806  163.3225 C.ar    1  UNL1        0.1513
     19 C         140.8588  138.4070  161.8833 C.ar    1  UNL1        0.0336
     20 C         139.8394  138.9679  160.9367 C.ar    1  UNL1       -0.0233
     21 C         140.1967  139.1943  159.4976 C.3     1  UNL1        0.0249
     22 C         139.9146  138.1304  158.4784 C.3     1  UNL1        0.0217
     23 C         140.2719  138.3568  157.0393 C.3     1  UNL1        0.0725
     24 N         140.9114  139.6471  156.6194 N.3     1  UNL1       -0.2715
     25 C         141.2687  139.8736  155.1802 C.3     1  UNL1        0.0896
     26 C         141.1935  140.7109  157.6385 C.3     1  UNL1        0.0725
     27 C         140.8362  140.4845  159.0776 C.3     1  UNL1        0.0217
     28 O         141.5209  137.6197  164.2691 O.3     1  UNL1       -0.4779
     29 C         142.6575  138.4770  164.7415 C.3     1  UNL1        0.1662
     30 C         143.6304  139.0452  163.7512 C.3     1  UNL1        0.0472
     31 C         142.8212  138.7662  166.2042 C.3     1  UNL1        0.0472
     32 N         140.8930  142.8628  166.5029 N.pl3   1  UNL1       -0.2967
     33 H         140.6127  143.7232  166.8909 H       1  UNL1        0.1536
     34 C         142.0086  142.8198  165.5012 C.ar    1  UNL1        0.0667
     35 C         143.4153  142.5659  165.9557 C.ar    1  UNL1        0.0159
     36 C         144.5309  142.5228  164.9539 C.ar    1  UNL1        0.0014
     37 C         144.2398  142.7337  163.4976 C.ar    1  UNL1        0.0014
     38 C         142.8330  142.9876  163.0431 C.ar    1  UNL1        0.0196
     39 C         141.7174  143.0307  164.0449 C.ar    1  UNL1        0.1189
     40 S         140.3107  143.2846  163.5904 S.O2    1  UNL1        0.0082
     41 O         140.3164  141.9826  162.8455 O.2     1  UNL1       -0.1686
     42 O         140.3050  144.5865  164.3353 O.2     1  UNL1       -0.1686
     43 C         138.9040  143.5385  163.1359 C.3     1  UNL1        0.1340
     44 C         138.4843  143.1582  161.7470 C.3     1  UNL1        0.0257
     45 C         137.9169  144.1728  164.0704 C.3     1  UNL1        0.0257
@<TRIPOS>BOND
     1    14    15    1
     2    15    16   ar
     3    16    17   ar
     4    17    12    1
     5    12     1    1
     6     1     2   ar
     7     2     3   ar
     8     3    32    1
     9    32    34    1
    10    34    35   ar
    11    35    36   ar
    12    36    37   ar
    13    37    38   ar
    14    38    39   ar
    15    39    40    1
    16    40    41    2
    17    40    42    2
    18    40    43    1
    19    43    44    1
    20    43    45    1
    21     3     4   ar
    22     4     5   ar
    23     5     6    1
    24     5     7   ar
    25     7     8   ar
    26     8     9   ar
    27     9    10   ar
    28    17    18   ar
    29    18    28    1
    30    28    29    1
    31    29    30    1
    32    29    31    1
    33    18    19   ar
    34    19    20   ar
    35    20    21    1
    36    21    22    1
    37    22    23    1
    38    23    24    1
    39    24    25    1
    40    24    26    1
    41    26    27    1
    42    20    15   ar
    43    27    21    1
    44    10     1   ar
    45    39    34   ar
    46     9     4    1
    47    12    13    1
    48    32    33    1
    49    10    11    1
@<TRIPOS>MOLECULE
*****
 45 49 0 0 0
SMALL
GASTEIGER

@<TRIPOS>ATOM
      1 C         142.4289  138.3866  161.0962 C.ar    1  UNL1        0.2006
      2 N         142.9081  139.7998  161.2487 N.ar    1  UNL1       -0.1999
      3 C         143.4831  140.5281  160.0701 C.ar    1  UNL1        0.1391
      4 C         143.5788  139.8432  158.7391 C.ar    1  UNL1        0.0827
      5 C         144.0952  140.3038  157.4082 C.ar    1  UNL1        0.0866
      6 C         144.6706  141.6556  157.1055 C.3     1  UNL1        0.0542
      7 N         143.9351  139.1753  156.4332 N.ar    1  UNL1       -0.1508
      8 N         143.3198  138.0172  157.1614 N.ar    1  UNL1       -0.1305
      9 C         143.0996  138.4301  158.5866 C.ar    1  UNL1        0.1679
     10 N         142.5247  137.7018  159.7651 N.ar    1  UNL1       -0.3104
     11 H         142.2101  136.7742  159.6650 H       1  UNL1        0.1701
     12 N         141.8540  137.6583  162.2747 N.pl3   1  UNL1       -0.2816
     13 H         141.6969  136.6876  162.2248 H       1  UNL1        0.1551
     14 C         143.0634  139.0935  167.1201 C.3     1  UNL1        0.0307
     15 C         142.1230  139.1265  165.9520 C.ar    1  UNL1       -0.0244
     16 C         142.4587  138.3759  164.6975 C.ar    1  UNL1        0.0132
     17 C         141.5182  138.4088  163.5293 C.ar    1  UNL1        0.0845
     18 C         140.2421  139.1923  163.6158 C.ar    1  UNL1        0.1513
     19 C         139.9063  139.9429  164.8704 C.ar    1  UNL1        0.0336
     20 C         140.8467  139.9100  166.0385 C.ar    1  UNL1       -0.0233
     21 C         140.5110  140.6606  167.2930 C.3     1  UNL1        0.0249
     22 C         139.7481  139.9817  168.3917 C.3     1  UNL1        0.0217
     23 C         139.4124  140.7323  169.6463 C.3     1  UNL1        0.0725
     24 N         139.8396  142.1617  169.8021 N.3     1  UNL1       -0.2715
     25 C         139.5040  142.9124  171.0567 C.3     1  UNL1        0.0896
     26 C         140.6026  142.8405  168.7035 C.3     1  UNL1        0.0725
     27 C         140.9383  142.0899  167.4489 C.3     1  UNL1        0.0217
     28 O         139.3016  139.2253  162.4477 O.3     1  UNL1       -0.4779
     29 C         138.8584  140.5404  161.8785 C.3     1  UNL1        0.1662
     30 C         139.6838  141.2182  160.8252 C.3     1  UNL1        0.0472
     31 C         137.5898  141.1778  162.3626 C.3     1  UNL1        0.0472
     32 N         143.9623  141.9414  160.2227 N.pl3   1  UNL1       -0.2967
     33 H         144.9247  142.1428  160.1737 H       1  UNL1        0.1536
     34 C         142.9751  143.0476  160.4500 C.ar    1  UNL1        0.0667
     35 C         142.2590  143.6649  159.2854 C.ar    1  UNL1        0.0159
     36 C         141.2719  144.7711  159.5128 C.ar    1  UNL1        0.0014
     37 C         141.0008  145.2601  160.9047 C.ar    1  UNL1        0.0014
     38 C         141.7169  144.6428  162.0693 C.ar    1  UNL1        0.0196
     39 C         142.7041  143.5366  161.8419 C.ar    1  UNL1        0.1189
     40 S         143.4201  142.9193  163.0065 S.O2    1  UNL1        0.0082
     41 O         142.1418  142.2712  163.4489 O.2     1  UNL1       -0.1686
     42 O         144.6984  143.5675  162.5640 O.2     1  UNL1       -0.1686
     43 C         144.1362  142.3020  164.1710 C.3     1  UNL1        0.1340
     44 C         145.0422  141.1260  163.9566 C.3     1  UNL1        0.0257
     45 C         143.9462  142.8609  165.5500 C.3     1  UNL1        0.0257
@<TRIPOS>BOND
     1    14    15    1
     2    15    16   ar
     3    16    17   ar
     4    17    12    1
     5    12     1    1
     6     1     2   ar
     7     2     3   ar
     8     3    32    1
     9    32    34    1
    10    34    35   ar
    11    35    36   ar
    12    36    37   ar
    13    37    38   ar
    14    38    39   ar
    15    39    40    1
    16    40    41    2
    17    40    42    2
    18    40    43    1
    19    43    44    1
    20    43    45    1
    21     3     4   ar
    22     4     5   ar
    23     5     6    1
    24     5     7   ar
    25     7     8   ar
    26     8     9   ar
    27     9    10   ar
    28    17    18   ar
    29    18    28    1
    30    28    29    1
    31    29    30    1
    32    29    31    1
    33    18    19   ar
    34    19    20   ar
    35    20    21    1
    36    21    22    1
    37    22    23    1
    38    23    24    1
    39    24    25    1
    40    24    26    1
    41    26    27    1
    42    20    15   ar
    43    27    21    1
    44    10     1   ar
    45    39    34   ar
    46     9     4    1
    47    12    13    1
    48    32    33    1
    49    10    11    1
@<TRIPOS>MOLECULE
*****
 45 49 0 0 0
SMALL
GASTEIGER

@<TRIPOS>ATOM
      1 C         143.4610  142.9013  165.6382 C.ar    1  UNL1        0.2006
      2 N         142.3005  141.9852  165.3860 N.ar    1  UNL1       -0.1999
      3 C         141.6612  141.2525  166.5282 C.ar    1  UNL1        0.1391
      4 C         142.1826  141.4360  167.9226 C.ar    1  UNL1        0.0827
      5 C         141.7592  140.8514  169.2375 C.ar    1  UNL1        0.0866
      6 C         140.6344  139.8821  169.4502 C.3     1  UNL1        0.0542
      7 N         142.6582  141.4063  170.3024 N.ar    1  UNL1       -0.1508
      8 N         143.6372  142.3338  169.6457 N.ar    1  UNL1       -0.1305
      9 C         143.3432  142.3522  168.1749 C.ar    1  UNL1        0.1679
     10 N         143.9824  143.0848  167.0326 N.ar    1  UNL1       -0.3104
     11 H         144.7442  143.6861  167.1982 H       1  UNL1        0.1701
     12 N         144.1003  143.6339  164.4960 N.pl3   1  UNL1       -0.2816
     13 H         145.0123  143.9927  164.5901 H       1  UNL1        0.1551
     14 C         140.2610  145.8815  161.8112 C.3     1  UNL1        0.0307
     15 C         141.4303  144.9437  161.8681 C.ar    1  UNL1       -0.0244
     16 C         142.1806  144.7577  163.1535 C.ar    1  UNL1        0.0132
     17 C         143.3500  143.8200  163.2105 C.ar    1  UNL1        0.0845
     18 C         143.7691  143.0683  161.9820 C.ar    1  UNL1        0.1513
     19 C         143.0188  143.2543  160.6965 C.ar    1  UNL1        0.0336
     20 C         141.8495  144.1920  160.6395 C.ar    1  UNL1       -0.0233
     21 C         141.0992  144.3780  159.3541 C.3     1  UNL1        0.0249
     22 C         141.4564  145.5075  158.4338 C.3     1  UNL1        0.0217
     23 C         140.7061  145.6935  157.1484 C.3     1  UNL1        0.0725
     24 N         139.5986  144.7501  156.7831 N.3     1  UNL1       -0.2715
     25 C         138.8482  144.9361  155.4976 C.3     1  UNL1        0.0896
     26 C         139.2414  143.6207  157.7033 C.3     1  UNL1        0.0725
     27 C         139.9917  143.4346  158.9888 C.3     1  UNL1        0.0217
     28 O         144.9385  142.1306  162.0389 O.3     1  UNL1       -0.4779
     29 C         144.7453  140.7182  162.5058 C.3     1  UNL1        0.1662
     30 C         145.2246  140.3057  163.8659 C.3     1  UNL1        0.0472
     31 C         144.0727  139.7184  161.6124 C.3     1  UNL1        0.0472
     32 N         140.5006  140.3363  166.2759 N.pl3   1  UNL1       -0.2967
     33 H         139.7497  140.3064  166.9119 H       1  UNL1        0.1536
     34 C         140.4840  139.4657  165.0545 C.ar    1  UNL1        0.0667
     35 C         141.1172  138.1065  165.0936 C.ar    1  UNL1        0.0159
     36 C         141.1005  137.2360  163.8722 C.ar    1  UNL1        0.0014
     37 C         140.4507  137.7247  162.6117 C.ar    1  UNL1        0.0014
     38 C         139.8175  139.0839  162.5726 C.ar    1  UNL1        0.0196
     39 C         139.8341  139.9545  163.7940 C.ar    1  UNL1        0.1189
     40 S         139.2009  141.3137  163.7549 S.O2    1  UNL1        0.0082
     41 O         138.1693  140.8616  164.7456 O.2     1  UNL1       -0.1686
     42 O         140.2325  141.7658  162.7643 O.2     1  UNL1       -0.1686
     43 C         138.5677  142.6729  163.7159 C.3     1  UNL1        0.1340
     44 C         137.7254  143.0745  162.5415 C.3     1  UNL1        0.0257
     45 C         138.7768  143.6306  164.8513 C.3     1  UNL1        0.0257
@<TRIPOS>BOND
     1    14    15    1
     2    15    16   ar
     3    16    17   ar
     4    17    12    1
     5    12     1    1
     6     1     2   ar
     7     2     3   ar
     8     3    32    1
     9    32    34    1
    10    34    35   ar
    11    35    36   ar
    12    36    37   ar
    13    37    38   ar
    14    38    39   ar
    15    39    40    1
    16    40    41    2
    17    40    42    2
    18    40    43    1
    19    43    44    1
    20    43    45    1
    21     3     4   ar
    22     4     5   ar
    23     5     6    1
    24     5     7   ar
    25     7     8   ar
    26     8     9   ar
    27     9    10   ar
    28    17    18   ar
    29    18    28    1
    30    28    29    1
    31    29    30    1
    32    29    31    1
    33    18    19   ar
    34    19    20   ar
    35    20    21    1
    36    21    22    1
    37    22    23    1
    38    23    24    1
    39    24    25    1
    40    24    26    1
    41    26    27    1
    42    20    15   ar
    43    27    21    1
    44    10     1   ar
    45    39    34   ar
    46     9     4    1
    47    12    13    1
    48    32    33    1
    49    10    11    1
@<TRIPOS>MOLECULE
*****
 45 49 0 0 0
SMALL
GASTEIGER

@<TRIPOS>ATOM
      1 C         139.6048  139.2603  165.2122 C.ar    1  UNL1        0.2006
      2 N         140.3359  140.5559  165.0204 N.ar    1  UNL1       -0.1999
      3 C         140.5412  141.4806  166.1836 C.ar    1  UNL1        0.1391
      4 C         140.0153  141.1096  167.5385 C.ar    1  UNL1        0.0827
      5 C         140.0651  141.8141  168.8618 C.ar    1  UNL1        0.0866
      6 C         140.7033  143.1451  169.1286 C.3     1  UNL1        0.0542
      7 N         139.3648  140.9538  169.8715 N.ar    1  UNL1       -0.1508
      8 N         138.8821  139.7177  169.1722 N.ar    1  UNL1       -0.1305
      9 C         139.2841  139.8140  167.7303 C.ar    1  UNL1        0.1679
     10 N         139.0789  138.8893  166.5671 N.ar    1  UNL1       -0.3104
     11 H         138.5990  138.0390  166.6930 H       1  UNL1        0.1701
     12 N         139.3995  138.3355  164.0491 N.pl3   1  UNL1       -0.2816
     13 H         138.7413  137.6061  164.1104 H       1  UNL1        0.1551
     14 C         143.7916  137.6372  161.3616 C.3     1  UNL1        0.0307
     15 C         142.3933  138.1732  161.4489 C.ar    1  UNL1       -0.0244
     16 C         141.5956  137.9864  162.7053 C.ar    1  UNL1        0.0132
     17 C         140.1973  138.5223  162.7927 C.ar    1  UNL1        0.0845
     18 C         139.5968  139.2451  161.6235 C.ar    1  UNL1        0.1513
     19 C         140.3945  139.4319  160.3669 C.ar    1  UNL1        0.0336
     20 C         141.7927  138.8960  160.2797 C.ar    1  UNL1       -0.0233
     21 C         142.5905  139.0828  159.0232 C.3     1  UNL1        0.0249
     22 C         142.4825  138.0826  157.9106 C.3     1  UNL1        0.0217
     23 C         143.2803  138.2693  156.6541 C.3     1  UNL1        0.0725
     24 N         144.1860  139.4564  156.5103 N.3     1  UNL1       -0.2715
     25 C         144.9838  139.6433  155.2538 C.3     1  UNL1        0.0896
     26 C         144.2939  140.4566  157.6229 C.3     1  UNL1        0.0725
     27 C         143.4962  140.2698  158.8794 C.3     1  UNL1        0.0217
     28 O         138.1985  139.7810  161.7108 O.3     1  UNL1       -0.4779
     29 C         137.9688  141.2303  162.0221 C.3     1  UNL1        0.1662
     30 C         138.3472  142.2815  161.0212 C.3     1  UNL1        0.0472
     31 C         137.3608  141.6283  163.3343 C.3     1  UNL1        0.0472
     32 N         141.2723  142.7763  165.9917 N.pl3   1  UNL1       -0.2967
     33 H         141.8354  143.1355  166.7150 H       1  UNL1        0.1536
     34 C         141.1456  143.5245  164.6978 C.ar    1  UNL1        0.0667
     35 C         140.0178  144.4933  164.4990 C.ar    1  UNL1        0.0159
     36 C         139.8911  145.2415  163.2052 C.ar    1  UNL1        0.0014
     37 C         140.8922  145.0208  162.1101 C.ar    1  UNL1        0.0014
     38 C         142.0200  144.0520  162.3089 C.ar    1  UNL1        0.0196
     39 C         142.1466  143.3038  163.6028 C.ar    1  UNL1        0.1189
     40 S         143.2744  142.3350  163.8016 S.O2    1  UNL1        0.0082
     41 O         143.8572  143.2296  164.8551 O.2     1  UNL1       -0.1686
     42 O         142.6916  141.4404  162.7480 O.2     1  UNL1       -0.1686
     43 C         144.4021  141.3662  164.0004 C.3     1  UNL1        0.1340
     44 C         144.1379  140.0233  164.6142 C.3     1  UNL1        0.0257
     45 C         145.7942  141.7403  163.5853 C.3     1  UNL1        0.0257
@<TRIPOS>BOND
     1    14    15    1
     2    15    16   ar
     3    16    17   ar
     4    17    12    1
     5    12     1    1
     6     1     2   ar
     7     2     3   ar
     8     3    32    1
     9    32    34    1
    10    34    35   ar
    11    35    36   ar
    12    36    37   ar
    13    37    38   ar
    14    38    39   ar
    15    39    40    1
    16    40    41    2
    17    40    42    2
    18    40    43    1
    19    43    44    1
    20    43    45    1
    21     3     4   ar
    22     4     5   ar
    23     5     6    1
    24     5     7   ar
    25     7     8   ar
    26     8     9   ar
    27     9    10   ar
    28    17    18   ar
    29    18    28    1
    30    28    29    1
    31    29    30    1
    32    29    31    1
    33    18    19   ar
    34    19    20   ar
    35    20    21    1
    36    21    22    1
    37    22    23    1
    38    23    24    1
    39    24    25    1
    40    24    26    1
    41    26    27    1
    42    20    15   ar
    43    27    21    1
    44    10     1   ar
    45    39    34   ar
    46     9     4    1
    47    12    13    1
    48    32    33    1
    49    10    11    1
@<TRIPOS>MOLECULE
*****
 45 49 0 0 0
SMALL
GASTEIGER

@<TRIPOS>ATOM
      1 C         141.7839  144.6968  160.4992 C.ar    1  UNL1        0.2006
      2 N         141.2359  143.3066  160.3697 N.ar    1  UNL1       -0.1999
      3 C         140.8338  142.7812  159.0234 C.ar    1  UNL1        0.1391
      4 C         140.9797  143.6462  157.8067 C.ar    1  UNL1        0.0827
      5 C         140.6697  143.4031  156.3594 C.ar    1  UNL1        0.0866
      6 C         140.1028  142.1415  155.7790 C.3     1  UNL1        0.0542
      7 N         141.0261  144.6431  155.5944 N.ar    1  UNL1       -0.1508
      8 N         141.5564  145.6526  156.5689 N.ar    1  UNL1       -0.1305
      9 C         141.5277  145.0365  157.9362 C.ar    1  UNL1        0.1679
     10 N         141.9298  145.5618  159.2825 N.ar    1  UNL1       -0.3104
     11 H         142.2895  146.4743  159.3675 H       1  UNL1        0.1701
     12 N         142.1860  145.2222  161.8455 N.pl3   1  UNL1       -0.2816
     13 H         142.7181  146.0477  161.9129 H       1  UNL1        0.1551
     14 C         138.5709  144.0265  165.3813 C.3     1  UNL1        0.0307
     15 C         139.9698  143.8918  164.8569 C.ar    1  UNL1       -0.0244
     16 C         140.3784  144.6243  163.6134 C.ar    1  UNL1        0.0132
     17 C         141.7773  144.4896  163.0890 C.ar    1  UNL1        0.0845
     18 C         142.7676  143.6223  163.8082 C.ar    1  UNL1        0.1513
     19 C         142.3589  142.8897  165.0518 C.ar    1  UNL1        0.0336
     20 C         140.9601  143.0244  165.5761 C.ar    1  UNL1       -0.0233
     21 C         140.5514  142.2919  166.8196 C.3     1  UNL1        0.0249
     22 C         140.6420  142.9709  168.1541 C.3     1  UNL1        0.0217
     23 C         140.2333  142.2384  169.3976 C.3     1  UNL1        0.0725
     24 N         139.7341  140.8268  169.3066 N.3     1  UNL1       -0.2715
     25 C         139.3253  140.0941  170.5501 C.3     1  UNL1        0.0896
     26 C         139.6435  140.1478  167.9722 C.3     1  UNL1        0.0725
     27 C         140.0522  140.8804  166.7287 C.3     1  UNL1        0.0217
     28 O         144.1665  143.4876  163.2838 O.3     1  UNL1       -0.4779
     29 C         144.7038  142.1354  162.9193 C.3     1  UNL1        0.1662
     30 C         145.7479  141.4866  163.7788 C.3     1  UNL1        0.0472
     31 C         144.1969  141.4320  161.6952 C.3     1  UNL1        0.0472
     32 N         140.2857  141.3909  158.8940 N.pl3   1  UNL1       -0.2967
     33 H         139.4508  141.2353  158.3961 H       1  UNL1        0.1536
     34 C         141.0098  140.2377  159.5232 C.ar    1  UNL1        0.0667
     35 C         142.0994  139.5348  158.7692 C.ar    1  UNL1        0.0159
     36 C         142.8234  138.3817  159.3984 C.ar    1  UNL1        0.0014
     37 C         142.4578  137.9314  160.7818 C.ar    1  UNL1        0.0014
     38 C         141.3682  138.6344  161.5358 C.ar    1  UNL1        0.0196
     39 C         140.6442  139.7875  160.9066 C.ar    1  UNL1        0.1189
     40 S         139.5546  140.4904  161.6606 S.O2    1  UNL1        0.0082
     41 O         138.5443  139.9805  160.6761 O.2     1  UNL1       -0.1686
     42 O         140.5648  141.0004  162.6451 O.2     1  UNL1       -0.1686
     43 C         138.4649  141.1933  162.4147 C.3     1  UNL1        0.1340
     44 C         137.9244  140.5978  163.6808 C.3     1  UNL1        0.0257
     45 C         137.9159  142.4920  161.9026 C.3     1  UNL1        0.0257
@<TRIPOS>BOND
     1    14    15    1
     2    15    16   ar
     3    16    17   ar
     4    17    12    1
     5    12     1    1
     6     1     2   ar
     7     2     3   ar
     8     3    32    1
     9    32    34    1
    10    34    35   ar
    11    35    36   ar
    12    36    37   ar
    13    37    38   ar
    14    38    39   ar
    15    39    40    1
    16    40    41    2
    17    40    42    2
    18    40    43    1
    19    43    44    1
    20    43    45    1
    21     3     4   ar
    22     4     5   ar
    23     5     6    1
    24     5     7   ar
    25     7     8   ar
    26     8     9   ar
    27     9    10   ar
    28    17    18   ar
    29    18    28    1
    30    28    29    1
    31    29    30    1
    32    29    31    1
    33    18    19   ar
    34    19    20   ar
    35    20    21    1
    36    21    22    1
    37    22    23    1
    38    23    24    1
    39    24    25    1
    40    24    26    1
    41    26    27    1
    42    20    15   ar
    43    27    21    1
    44    10     1   ar
    45    39    34   ar
    46     9     4    1
    47    12    13    1
    48    32    33    1
    49    10    11    1
@<TRIPOS>MOLECULE
*****
 45 49 0 0 0
SMALL
GASTEIGER

@<TRIPOS>ATOM
      1 C         138.6505  139.8268  165.4557 C.ar    1  UNL1        0.2006
      2 N         140.1250  139.8520  165.1817 N.ar    1  UNL1       -0.1999
      3 C         141.0998  139.8586  166.3218 C.ar    1  UNL1        0.1391
      4 C         140.6000  139.8402  167.7360 C.ar    1  UNL1        0.0827
      5 C         141.3164  139.8415  169.0538 C.ar    1  UNL1        0.0866
      6 C         142.8035  139.8633  169.2489 C.3     1  UNL1        0.0542
      7 N         140.2846  139.8172  170.1423 N.ar    1  UNL1       -0.1508
      8 N         138.9305  139.8008  169.4972 N.ar    1  UNL1       -0.1305
      9 C         139.1254  139.8151  168.0100 C.ar    1  UNL1        0.1679
     10 N         138.1507  139.8084  166.8699 N.ar    1  UNL1       -0.3104
     11 H         137.1829  139.7919  167.0497 H       1  UNL1        0.1701
     12 N         137.6757  139.8202  164.3156 N.pl3   1  UNL1       -0.2816
     13 H         136.7902  139.4048  164.4275 H       1  UNL1        0.1551
     14 C         139.1317  139.3381  159.3509 C.3     1  UNL1        0.0307
     15 C         138.7783  140.2053  160.5226 C.ar    1  UNL1       -0.0244
     16 C         138.4037  139.5792  161.8332 C.ar    1  UNL1        0.0132
     17 C         138.0503  140.4463  163.0050 C.ar    1  UNL1        0.0845
     18 C         138.0714  141.9397  162.8662 C.ar    1  UNL1        0.1513
     19 C         138.4460  142.5660  161.5556 C.ar    1  UNL1        0.0336
     20 C         138.7994  141.6988  160.3839 C.ar    1  UNL1       -0.0233
     21 C         139.1739  142.3250  159.0733 C.3     1  UNL1        0.0249
     22 C         140.5981  142.7139  158.8078 C.3     1  UNL1        0.0217
     23 C         140.9726  143.3401  157.4972 C.3     1  UNL1        0.0725
     24 N         139.9230  143.5773  156.4522 N.3     1  UNL1       -0.2715
     25 C         140.2975  144.2035  155.1415 C.3     1  UNL1        0.0896
     26 C         138.4988  143.1884  156.7178 C.3     1  UNL1        0.0725
     27 C         138.1243  142.5622  158.0283 C.3     1  UNL1        0.0217
     28 O         137.7180  142.8070  164.0380 O.3     1  UNL1       -0.4779
     29 C         138.7735  143.6454  164.6960 C.3     1  UNL1        0.1662
     30 C         138.3851  144.8755  165.4614 C.3     1  UNL1        0.0472
     31 C         140.2175  143.2536  164.5885 C.3     1  UNL1        0.0472
     32 N         142.5744  139.8838  166.0477 N.pl3   1  UNL1       -0.2967
     33 H         143.1420  139.1339  166.3389 H       1  UNL1        0.1536
     34 C         143.1840  141.0513  165.3301 C.ar    1  UNL1        0.0667
     35 C         143.4939  142.3135  166.0790 C.ar    1  UNL1        0.0159
     36 C         144.1035  143.4810  165.3612 C.ar    1  UNL1        0.0014
     37 C         144.4033  143.3864  163.8945 C.ar    1  UNL1        0.0014
     38 C         144.0934  142.1242  163.1456 C.ar    1  UNL1        0.0196
     39 C         143.4838  140.9567  163.8634 C.ar    1  UNL1        0.1189
     40 S         143.1739  139.6945  163.1144 S.O2    1  UNL1        0.0082
     41 O         144.3056  139.0017  163.8138 O.2     1  UNL1       -0.1686
     42 O         142.0422  140.3874  162.4150 O.2     1  UNL1       -0.1686
     43 C         142.8640  138.4324  162.3655 C.3     1  UNL1        0.1340
     44 C         143.8437  137.8939  161.3654 C.3     1  UNL1        0.0257
     45 C         141.5743  137.7087  162.6167 C.3     1  UNL1        0.0257
@<TRIPOS>BOND
     1    14    15    1
     2    15    16   ar
     3    16    17   ar
     4    17    12    1
     5    12     1    1
     6     1     2   ar
     7     2     3   ar
     8     3    32    1
     9    32    34    1
    10    34    35   ar
    11    35    36   ar
    12    36    37   ar
    13    37    38   ar
    14    38    39   ar
    15    39    40    1
    16    40    41    2
    17    40    42    2
    18    40    43    1
    19    43    44    1
    20    43    45    1
    21     3     4   ar
    22     4     5   ar
    23     5     6    1
    24     5     7   ar
    25     7     8   ar
    26     8     9   ar
    27     9    10   ar
    28    17    18   ar
    29    18    28    1
    30    28    29    1
    31    29    30    1
    32    29    31    1
    33    18    19   ar
    34    19    20   ar
    35    20    21    1
    36    21    22    1
    37    22    23    1
    38    23    24    1
    39    24    25    1
    40    24    26    1
    41    26    27    1
    42    20    15   ar
    43    27    21    1
    44    10     1   ar
    45    39    34   ar
    46     9     4    1
    47    12    13    1
    48    32    33    1
    49    10    11    1
@<TRIPOS>MOLECULE
*****
 45 49 0 0 0
SMALL
GASTEIGER

@<TRIPOS>ATOM
      1 C         143.2201  143.0361  165.6733 C.ar    1  UNL1        0.2006
      2 N         141.7989  142.5855  165.5096 N.ar    1  UNL1       -0.1999
      3 C         141.0549  142.0107  166.6784 C.ar    1  UNL1        0.1391
      4 C         141.7323  141.8865  168.0109 C.ar    1  UNL1        0.0827
      5 C         141.2565  141.3634  169.3338 C.ar    1  UNL1        0.0866
      6 C         139.8929  140.8101  169.6243 C.3     1  UNL1        0.0542
      7 N         142.3838  141.4907  170.3151 N.ar    1  UNL1       -0.1508
      8 N         143.5563  142.0925  169.5987 N.ar    1  UNL1       -0.1305
      9 C         143.1536  142.3371  168.1747 C.ar    1  UNL1        0.1679
     10 N         143.8975  142.9119  167.0058 N.ar    1  UNL1       -0.3104
     11 H         144.8303  143.2077  167.1133 H       1  UNL1        0.1701
     12 N         143.9641  143.6110  164.5045 N.pl3   1  UNL1       -0.2816
     13 H         144.9138  143.8534  164.5965 H       1  UNL1        0.1551
     14 C         140.1910  145.8587  161.7273 C.3     1  UNL1        0.0307
     15 C         141.3744  144.9403  161.8069 C.ar    1  UNL1       -0.0244
     16 C         142.0775  144.7348  163.1158 C.ar    1  UNL1        0.0132
     17 C         143.2609  143.8165  163.1955 C.ar    1  UNL1        0.0845
     18 C         143.7411  143.1037  161.9662 C.ar    1  UNL1        0.1513
     19 C         143.0380  143.3092  160.6572 C.ar    1  UNL1        0.0336
     20 C         141.8547  144.2274  160.5775 C.ar    1  UNL1       -0.0233
     21 C         141.1515  144.4329  159.2686 C.3     1  UNL1        0.0249
     22 C         140.0524  143.5005  158.8532 C.3     1  UNL1        0.0217
     23 C         139.3493  143.7060  157.5442 C.3     1  UNL1        0.0725
     24 N         139.7452  144.8439  156.6507 N.3     1  UNL1       -0.2715
     25 C         139.0421  145.0495  155.3417 C.3     1  UNL1        0.0896
     26 C         140.8443  145.7764  157.0662 C.3     1  UNL1        0.0725
     27 C         141.5475  145.5709  158.3751 C.3     1  UNL1        0.0217
     28 O         144.9245  142.1854  162.0458 O.3     1  UNL1       -0.4779
     29 C         144.7380  140.7558  162.4599 C.3     1  UNL1        0.1662
     30 C         145.1390  140.3152  163.8365 C.3     1  UNL1        0.0472
     31 C         144.1503  139.7668  161.4973 C.3     1  UNL1        0.0472
     32 N         139.6335  141.5600  166.5146 N.pl3   1  UNL1       -0.2967
     33 H         139.1814  141.0813  167.2465 H       1  UNL1        0.1536
     34 C         138.9010  141.8388  165.2357 C.ar    1  UNL1        0.0667
     35 C         138.5826  143.2520  164.8464 C.ar    1  UNL1        0.0159
     36 C         137.8500  143.5307  163.5675 C.ar    1  UNL1        0.0014
     37 C         137.4360  142.3962  162.6778 C.ar    1  UNL1        0.0014
     38 C         137.7544  140.9830  163.0670 C.ar    1  UNL1        0.0196
     39 C         138.4870  140.7043  164.3460 C.ar    1  UNL1        0.1189
     40 S         138.8054  139.2912  164.7352 S.O2    1  UNL1        0.0082
     41 O         139.8606  139.2357  163.6706 O.2     1  UNL1       -0.1686
     42 O         137.7502  139.3466  165.7999 O.2     1  UNL1       -0.1686
     43 C         139.1239  137.8780  165.1245 C.3     1  UNL1        0.1340
     44 C         140.3934  137.2368  164.6481 C.3     1  UNL1        0.0257
     45 C         138.1727  137.1061  165.9902 C.3     1  UNL1        0.0257
@<TRIPOS>BOND
     1    14    15    1
     2    15    16   ar
     3    16    17   ar
     4    17    12    1
     5    12     1    1
     6     1     2   ar
     7     2     3   ar
     8     3    32    1
     9    32    34    1
    10    34    35   ar
    11    35    36   ar
    12    36    37   ar
    13    37    38   ar
    14    38    39   ar
    15    39    40    1
    16    40    41    2
    17    40    42    2
    18    40    43    1
    19    43    44    1
    20    43    45    1
    21     3     4   ar
    22     4     5   ar
    23     5     6    1
    24     5     7   ar
    25     7     8   ar
    26     8     9   ar
    27     9    10   ar
    28    17    18   ar
    29    18    28    1
    30    28    29    1
    31    29    30    1
    32    29    31    1
    33    18    19   ar
    34    19    20   ar
    35    20    21    1
    36    21    22    1
    37    22    23    1
    38    23    24    1
    39    24    25    1
    40    24    26    1
    41    26    27    1
    42    20    15   ar
    43    27    21    1
    44    10     1   ar
    45    39    34   ar
    46     9     4    1
    47    12    13    1
    48    32    33    1
    49    10    11    1
@<TRIPOS>MOLECULE
*****
 45 49 0 0 0
SMALL
GASTEIGER

@<TRIPOS>ATOM
      1 C         138.2217  140.6192  161.1678 C.ar    1  UNL1        0.2006
      2 N         139.6652  140.2123  161.1869 N.ar    1  UNL1       -0.1999
      3 C         140.3416  139.7871  159.9173 C.ar    1  UNL1        0.1391
      4 C         139.5742  139.7689  158.6286 C.ar    1  UNL1        0.0827
      5 C         139.9703  139.3998  157.2297 C.ar    1  UNL1        0.0866
      6 C         141.3270  138.9337  156.7914 C.3     1  UNL1        0.0542
      7 N         138.7714  139.5786  156.3461 N.ar    1  UNL1       -0.1508
      8 N         137.6344  140.0582  157.1988 N.ar    1  UNL1       -0.1305
      9 C         138.1305  140.1759  158.6095 C.ar    1  UNL1        0.1679
     10 N         137.4543  140.6010  159.8791 N.ar    1  UNL1       -0.3104
     11 H         136.5068  140.8681  159.8666 H       1  UNL1        0.1701
     12 N         137.5454  141.0443  162.4375 N.pl3   1  UNL1       -0.2816
     13 H         136.5634  141.1031  162.4763 H       1  UNL1        0.1551
     14 C         139.6088  139.6582  167.0006 C.3     1  UNL1        0.0307
     15 C         139.3971  140.6868  165.9295 C.ar    1  UNL1       -0.0244
     16 C         138.5771  140.3513  164.7191 C.ar    1  UNL1        0.0132
     17 C         138.3653  141.3798  163.6479 C.ar    1  UNL1        0.0845
     18 C         138.9735  142.7439  163.7872 C.ar    1  UNL1        0.1513
     19 C         139.7935  143.0794  164.9977 C.ar    1  UNL1        0.0336
     20 C         140.0052  142.0510  166.0688 C.ar    1  UNL1       -0.0233
     21 C         140.8252  142.3865  167.2792 C.3     1  UNL1        0.0249
     22 C         140.1888  143.0792  168.4476 C.3     1  UNL1        0.0217
     23 C         141.0088  143.4147  169.6580 C.3     1  UNL1        0.0725
     24 N         142.4650  143.0575  169.7000 N.3     1  UNL1       -0.2715
     25 C         143.2851  143.3930  170.9104 C.3     1  UNL1        0.0896
     26 C         143.1013  142.3648  168.5316 C.3     1  UNL1        0.0725
     27 C         142.2814  142.0293  167.3211 C.3     1  UNL1        0.0217
     28 O         138.7617  143.7725  162.7161 O.3     1  UNL1       -0.4779
     29 C         139.9409  144.3777  162.0139 C.3     1  UNL1        0.1662
     30 C         139.9921  145.8574  161.7732 C.3     1  UNL1        0.0472
     31 C         141.0689  143.5033  161.5523 C.3     1  UNL1        0.0472
     32 N         141.7852  139.3802  159.9364 N.pl3   1  UNL1       -0.2967
     33 H         142.0447  138.4731  159.6553 H       1  UNL1        0.1536
     34 C         142.8334  140.3554  160.3839 C.ar    1  UNL1        0.0667
     35 C         143.4021  141.3445  159.4102 C.ar    1  UNL1        0.0159
     36 C         144.4504  142.3197  159.8577 C.ar    1  UNL1        0.0014
     37 C         144.9299  142.3056  161.2789 C.ar    1  UNL1        0.0014
     38 C         144.3612  141.3165  162.2526 C.ar    1  UNL1        0.0196
     39 C         143.3130  140.3413  161.8051 C.ar    1  UNL1        0.1189
     40 S         142.7442  139.3521  162.7788 S.O2    1  UNL1        0.0082
     41 O         142.0589  140.4673  163.5114 O.2     1  UNL1       -0.1686
     42 O         143.4296  138.2370  162.0462 O.2     1  UNL1       -0.1686
     43 C         142.1755  138.3630  163.7525 C.3     1  UNL1        0.1340
     44 C         141.1245  137.3904  163.3060 C.3     1  UNL1        0.0257
     45 C         142.6579  138.3464  165.1727 C.3     1  UNL1        0.0257
@<TRIPOS>BOND
     1    14    15    1
     2    15    16   ar
     3    16    17   ar
     4    17    12    1
     5    12     1    1
     6     1     2   ar
     7     2     3   ar
     8     3    32    1
     9    32    34    1
    10    34    35   ar
    11    35    36   ar
    12    36    37   ar
    13    37    38   ar
    14    38    39   ar
    15    39    40    1
    16    40    41    2
    17    40    42    2
    18    40    43    1
    19    43    44    1
    20    43    45    1
    21     3     4   ar
    22     4     5   ar
    23     5     6    1
    24     5     7   ar
    25     7     8   ar
    26     8     9   ar
    27     9    10   ar
    28    17    18   ar
    29    18    28    1
    30    28    29    1
    31    29    30    1
    32    29    31    1
    33    18    19   ar
    34    19    20   ar
    35    20    21    1
    36    21    22    1
    37    22    23    1
    38    23    24    1
    39    24    25    1
    40    24    26    1
    41    26    27    1
    42    20    15   ar
    43    27    21    1
    44    10     1   ar
    45    39    34   ar
    46     9     4    1
    47    12    13    1
    48    32    33    1
    49    10    11    1
@<TRIPOS>MOLECULE
*****
 45 49 0 0 0
SMALL
GASTEIGER

@<TRIPOS>ATOM
      1 C         141.5812  144.8832  160.7076 C.ar    1  UNL1        0.2006
      2 N         141.9094  143.4402  160.4626 N.ar    1  UNL1       -0.1999
      3 C         142.1762  142.9581  159.0674 C.ar    1  UNL1        0.1391
      4 C         142.1148  143.9191  157.9173 C.ar    1  UNL1        0.0827
      5 C         142.3290  143.7360  156.4440 C.ar    1  UNL1        0.0866
      6 C         142.6777  142.4491  155.7569 C.3     1  UNL1        0.0542
      7 N         142.1332  145.0660  155.7785 N.ar    1  UNL1       -0.1508
      8 N         141.7980  146.0709  156.8404 N.ar    1  UNL1       -0.1305
      9 C         141.7866  145.3621  158.1623 C.ar    1  UNL1        0.1679
     10 N         141.5198  145.8441  159.5575 N.ar    1  UNL1       -0.3104
     11 H         141.3044  146.7912  159.7183 H       1  UNL1        0.1701
     12 N         141.3144  145.3653  162.1028 N.pl3   1  UNL1       -0.2816
     13 H         140.9812  146.2796  162.2524 H       1  UNL1        0.1551
     14 C         144.5601  143.2516  165.5667 C.3     1  UNL1        0.0307
     15 C         143.1781  143.3976  165.0019 C.ar    1  UNL1       -0.0244
     16 C         142.9372  144.3084  163.8348 C.ar    1  UNL1        0.0132
     17 C         141.5553  144.4544  163.2699 C.ar    1  UNL1        0.0845
     18 C         140.4143  143.6895  163.8723 C.ar    1  UNL1        0.1513
     19 C         140.6552  142.7785  165.0395 C.ar    1  UNL1        0.0336
     20 C         142.0370  142.6326  165.6042 C.ar    1  UNL1       -0.0233
     21 C         142.2779  141.7217  166.7714 C.3     1  UNL1        0.0249
     22 C         142.3516  142.2850  168.1597 C.3     1  UNL1        0.0217
     23 C         142.5925  141.3741  169.3268 C.3     1  UNL1        0.0725
     24 N         142.7597  139.8999  169.1056 N.3     1  UNL1       -0.2715
     25 C         143.0006  138.9889  170.2728 C.3     1  UNL1        0.0896
     26 C         142.6860  139.3367  167.7174 C.3     1  UNL1        0.0725
     27 C         142.4452  140.2476  166.5502 C.3     1  UNL1        0.0217
     28 O         139.0323  143.8354  163.3075 O.3     1  UNL1       -0.4779
     29 C         138.3871  142.6829  162.5966 C.3     1  UNL1        0.1662
     30 C         138.7083  142.4154  161.1560 C.3     1  UNL1        0.0472
     31 C         137.4206  141.7978  163.3264 C.3     1  UNL1        0.0472
     32 N         142.5044  141.5150  158.8225 N.pl3   1  UNL1       -0.2967
     33 H         143.3273  141.2725  158.3396 H       1  UNL1        0.1536
     34 C         141.5787  140.4416  159.3133 C.ar    1  UNL1        0.0667
     35 C         140.4044  140.0245  158.4785 C.ar    1  UNL1        0.0159
     36 C         139.4788  138.9511  158.9694 C.ar    1  UNL1        0.0014
     37 C         139.7276  138.2948  160.2951 C.ar    1  UNL1        0.0014
     38 C         140.9019  138.7119  161.1298 C.ar    1  UNL1        0.0196
     39 C         141.8275  139.7853  160.6389 C.ar    1  UNL1        0.1189
     40 S         143.0019  140.2025  161.4737 S.O2    1  UNL1        0.0082
     41 O         143.9331  139.5917  160.4689 O.2     1  UNL1       -0.1686
     42 O         142.0706  140.8133  162.4786 O.2     1  UNL1       -0.1686
     43 C         144.1762  140.6196  162.3085 C.3     1  UNL1        0.1340
     44 C         144.5523  139.8254  163.5241 C.3     1  UNL1        0.0257
     45 C         144.9746  141.8311  161.9276 C.3     1  UNL1        0.0257
@<TRIPOS>BOND
     1    14    15    1
     2    15    16   ar
     3    16    17   ar
     4    17    12    1
     5    12     1    1
     6     1     2   ar
     7     2     3   ar
     8     3    32    1
     9    32    34    1
    10    34    35   ar
    11    35    36   ar
    12    36    37   ar
    13    37    38   ar
    14    38    39   ar
    15    39    40    1
    16    40    41    2
    17    40    42    2
    18    40    43    1
    19    43    44    1
    20    43    45    1
    21     3     4   ar
    22     4     5   ar
    23     5     6    1
    24     5     7   ar
    25     7     8   ar
    26     8     9   ar
    27     9    10   ar
    28    17    18   ar
    29    18    28    1
    30    28    29    1
    31    29    30    1
    32    29    31    1
    33    18    19   ar
    34    19    20   ar
    35    20    21    1
    36    21    22    1
    37    22    23    1
    38    23    24    1
    39    24    25    1
    40    24    26    1
    41    26    27    1
    42    20    15   ar
    43    27    21    1
    44    10     1   ar
    45    39    34   ar
    46     9     4    1
    47    12    13    1
    48    32    33    1
    49    10    11    1
