@<TRIPOS>MOLECULE
*****
 39 42 0 0 0
SMALL
GASTEIGER

@<TRIPOS>ATOM
      1 S         139.1415  140.0979  164.7185 S.O2    1  UNL1        0.0134
      2 O         137.8021  140.2607  164.7622 O.2     1  UNL1       -0.1683
      3 O         140.6110  139.9031  164.4883 O.2     1  UNL1       -0.1683
      4 C         139.3865  140.2013  166.1947 C.3     1  UNL1        0.1845
      5 C         139.9373  141.5531  165.8494 C.3     1  UNL1        0.0313
      6 C         140.3968  142.2048  167.1199 C.3     1  UNL1        0.0024
      7 C         140.1300  141.2557  168.2505 C.3     1  UNL1        0.0048
      8 C         139.8051  140.2080  169.2736 C.3     1  UNL1        0.0172
      9 C         140.1093  140.4540  170.7216 C.3     1  UNL1        0.0686
     10 N         140.7384  141.7477  171.1466 N.3     1  UNL1       -0.2975
     11 C         141.0633  142.7954  170.1235 C.3     1  UNL1        0.0686
     12 C         140.7591  142.5494  168.6755 C.3     1  UNL1        0.0172
     13 C         139.5056  140.0175  167.6787 C.3     1  UNL1        0.0314
     14 H         141.6139  141.5102  171.6131 H       1  UNL1        0.1232
     15 C         138.7845  138.8279  166.2315 C.2     1  UNL1        0.2644
     16 O         139.2613  137.7156  165.6332 O.2     1  UNL1       -0.2713
     17 N         137.5163  138.5850  166.9948 N.am    1  UNL1       -0.1956
     18 O         136.9144  137.2115  167.0315 O.3     1  UNL1       -0.2951
     19 H         137.0790  139.3270  167.4716 H       1  UNL1        0.1823
     20 H         137.4657  136.6030  166.5150 H       1  UNL1        0.2414
     21 C         138.4066  139.7879  160.2898 C.ar    1  UNL1        0.1391
     22 C         138.1645  141.0861  161.0012 C.ar    1  UNL1        0.0382
     23 C         138.4095  141.1894  162.4774 C.ar    1  UNL1        0.0215
     24 C         138.8966  139.9946  163.2422 C.ar    1  UNL1        0.1063
     25 C         139.1387  138.6964  162.5309 C.ar    1  UNL1        0.0215
     26 C         138.8937  138.5931  161.0547 C.ar    1  UNL1        0.0382
     27 O         138.1616  139.6846  158.8135 O.3     1  UNL1       -0.4706
     28 C         139.2872  139.9134  157.8486 C.3     1  UNL1        0.2320
     29 C         142.2559  136.6308  157.0354 C.ar    1  UNL1        0.0533
     30 C         140.9888  136.7110  156.2366 C.ar    1  UNL1        0.0043
     31 C         139.9992  137.8051  156.5077 C.ar    1  UNL1       -0.0005
     32 C         140.2768  138.8192  157.5776 C.ar    1  UNL1        0.0212
     33 C         141.5439  138.7391  158.3763 C.ar    1  UNL1       -0.0005
     34 C         142.5334  137.6449  158.1053 C.ar    1  UNL1        0.0043
     35 C         144.3227  133.2645  157.4178 C.3     1  UNL1        0.1109
     36 N         143.3332  134.3587  157.6889 N.am    1  UNL1       -0.2992
     37 C         143.2454  135.5367  156.7643 C.2     1  UNL1        0.2459
     38 O         144.1473  135.6204  155.5686 O.2     1  UNL1       -0.2701
     39 H         142.7412  134.3037  158.4737 H       1  UNL1        0.1498
@<TRIPOS>BOND
     1    35    36    1
     2    36    37   am
     3    37    38    2
     4    37    29    1
     5    29    30   ar
     6    30    31   ar
     7    31    32   ar
     8    32    28    1
     9    28    27    1
    10    27    21    1
    11    21    22   ar
    12    22    23   ar
    13    23    24   ar
    14    24     1    1
    15     1     2    2
    16     1     3    2
    17     1     4    1
    18     4    15    1
    19    15    16    2
    20    15    17   am
    21    17    18    1
    22     4     5    1
    23     5     6    1
    24     6     7    1
    25     7     8    1
    26     8     9    1
    27     9    10    1
    28    10    11    1
    29    11    12    1
    30     7    13    1
    31    24    25   ar
    32    25    26   ar
    33    32    33   ar
    34    33    34   ar
    35    34    29   ar
    36    26    21   ar
    37    13     4    1
    38    12     7    1
    39    36    39    1
    40    17    19    1
    41    18    20    1
    42    10    14    1
@<TRIPOS>MOLECULE
*****
 39 42 0 0 0
SMALL
GASTEIGER

@<TRIPOS>ATOM
      1 S         140.8540  138.7766  161.9502 S.O2    1  UNL1        0.0134
      2 O         140.7702  140.0502  161.5105 O.2     1  UNL1       -0.1683
      3 O         140.9646  137.3136  162.2628 O.2     1  UNL1       -0.1683
      4 C         140.7171  139.0788  163.4130 C.3     1  UNL1        0.1845
      5 C         139.3483  138.4882  163.2462 C.3     1  UNL1        0.0313
      6 C         138.6577  138.5357  164.5769 C.3     1  UNL1        0.0024
      7 C         139.5996  139.1556  165.5662 C.3     1  UNL1        0.0048
      8 C         140.6442  139.7880  166.4373 C.3     1  UNL1        0.0172
      9 C         140.3627  140.0298  167.8906 C.3     1  UNL1        0.0686
     10 N         139.0366  139.6393  168.4729 N.3     1  UNL1       -0.2975
     11 C         137.9920  139.0069  167.6017 C.3     1  UNL1        0.0686
     12 C         138.2735  138.7651  166.1484 C.3     1  UNL1        0.0172
     13 C         140.8724  139.4913  164.8469 C.3     1  UNL1        0.0314
     14 H         138.6233  140.4879  168.8594 H       1  UNL1        0.1232
     15 C         142.1144  139.6062  163.2741 C.2     1  UNL1        0.2644
     16 O         142.4968  140.9009  163.2632 O.2     1  UNL1       -0.2713
     17 N         143.2643  138.6543  163.1271 N.am    1  UNL1       -0.1956
     18 O         144.6616  139.1818  162.9882 O.3     1  UNL1       -0.2951
     19 H         143.1019  137.6833  163.1218 H       1  UNL1        0.1823
     20 H         144.6451  140.1513  163.0129 H       1  UNL1        0.2414
     21 C         141.2646  137.8699  157.5617 C.ar    1  UNL1        0.1391
     22 C         139.9246  138.2310  158.1307 C.ar    1  UNL1        0.0382
     23 C         139.7878  138.5333  159.5936 C.ar    1  UNL1        0.0215
     24 C         140.9909  138.4743  160.4873 C.ar    1  UNL1        0.1063
     25 C         142.3309  138.1132  159.9183 C.ar    1  UNL1        0.0215
     26 C         142.4678  137.8109  158.4555 C.ar    1  UNL1        0.0382
     27 O         141.4015  137.5677  156.0988 O.3     1  UNL1       -0.4706
     28 C         142.5668  136.7624  155.6051 C.3     1  UNL1        0.2320
     29 C         142.8344  132.3730  156.5597 C.ar    1  UNL1        0.0533
     30 C         141.8144  132.8659  155.5765 C.ar    1  UNL1        0.0043
     31 C         141.7252  134.3290  155.2583 C.ar    1  UNL1       -0.0005
     32 C         142.6560  135.2993  155.9233 C.ar    1  UNL1        0.0212
     33 C         143.6760  134.8063  156.9065 C.ar    1  UNL1       -0.0005
     34 C         143.7652  133.3432  157.2247 C.ar    1  UNL1        0.0043
     35 C         143.7852  128.9859  158.3965 C.3     1  UNL1        0.1109
     36 N         143.6960  130.4491  158.0784 N.am    1  UNL1       -0.2992
     37 C         142.9236  130.9099  156.8778 C.2     1  UNL1        0.2459
     38 O         142.2404  129.9074  155.9956 O.2     1  UNL1       -0.2701
     39 H         144.1445  131.1070  158.6574 H       1  UNL1        0.1498
@<TRIPOS>BOND
     1    35    36    1
     2    36    37   am
     3    37    38    2
     4    37    29    1
     5    29    30   ar
     6    30    31   ar
     7    31    32   ar
     8    32    28    1
     9    28    27    1
    10    27    21    1
    11    21    22   ar
    12    22    23   ar
    13    23    24   ar
    14    24     1    1
    15     1     2    2
    16     1     3    2
    17     1     4    1
    18     4    15    1
    19    15    16    2
    20    15    17   am
    21    17    18    1
    22     4     5    1
    23     5     6    1
    24     6     7    1
    25     7     8    1
    26     8     9    1
    27     9    10    1
    28    10    11    1
    29    11    12    1
    30     7    13    1
    31    24    25   ar
    32    25    26   ar
    33    32    33   ar
    34    33    34   ar
    35    34    29   ar
    36    26    21   ar
    37    13     4    1
    38    12     7    1
    39    36    39    1
    40    17    19    1
    41    18    20    1
    42    10    14    1
@<TRIPOS>MOLECULE
*****
 39 42 0 0 0
SMALL
GASTEIGER

@<TRIPOS>ATOM
      1 S         139.3797  141.0724  164.8596 S.O2    1  UNL1        0.0134
      2 O         138.0362  141.1975  164.9023 O.2     1  UNL1       -0.1683
      3 O         140.8578  140.9567  164.6312 O.2     1  UNL1       -0.1683
      4 C         139.5917  140.8748  166.3313 C.3     1  UNL1        0.1845
      5 C         140.1571  142.2632  166.2766 C.3     1  UNL1        0.0313
      6 C         140.5910  142.6419  167.6616 C.3     1  UNL1        0.0024
      7 C         140.2939  141.4877  168.5724 C.3     1  UNL1        0.0048
      8 C         139.9406  140.2590  169.3569 C.3     1  UNL1        0.0172
      9 C         140.2132  140.2061  170.8309 C.3     1  UNL1        0.0686
     10 N         140.8391  141.3821  171.5205 N.3     1  UNL1       -0.2975
     11 C         141.1924  142.6108  170.7360 C.3     1  UNL1        0.0686
     12 C         140.9198  142.6636  169.2620 C.3     1  UNL1        0.0172
     13 C         139.6763  140.3955  167.7503 C.3     1  UNL1        0.0314
     14 H         141.7025  141.0473  171.9481 H       1  UNL1        0.1232
     15 C         138.9821  139.5278  166.0786 C.2     1  UNL1        0.2644
     16 O         137.7646  139.0998  166.4748 O.2     1  UNL1       -0.2713
     17 N         139.7463  138.4909  165.3098 N.am    1  UNL1       -0.1956
     18 O         139.1366  137.1440  165.0571 O.3     1  UNL1       -0.2951
     19 H         140.6480  138.6945  164.9712 H       1  UNL1        0.1823
     20 H         138.2526  137.1094  165.4549 H       1  UNL1        0.2414
     21 C         138.7437  141.6654  160.4445 C.ar    1  UNL1        0.1391
     22 C         139.7152  140.6309  160.9300 C.ar    1  UNL1        0.0382
     23 C         139.9272  140.4332  162.4017 C.ar    1  UNL1        0.0215
     24 C         139.1677  141.2701  163.3879 C.ar    1  UNL1        0.1063
     25 C         138.1961  142.3046  162.9024 C.ar    1  UNL1        0.0215
     26 C         137.9841  142.5023  161.4307 C.ar    1  UNL1        0.0382
     27 O         138.5317  141.8630  158.9728 O.3     1  UNL1       -0.4706
     28 C         139.6527  142.3706  158.1150 C.3     1  UNL1        0.2320
     29 C         139.3827  146.4543  156.2440 C.ar    1  UNL1        0.0533
     30 C         138.7480  145.2757  155.5672 C.ar    1  UNL1        0.0043
     31 C         138.8380  143.9145  156.1908 C.ar    1  UNL1       -0.0005
     32 C         139.5627  143.7319  157.4913 C.ar    1  UNL1        0.0212
     33 C         140.1974  144.9104  158.1682 C.ar    1  UNL1       -0.0005
     34 C         140.1075  146.2716  157.5446 C.ar    1  UNL1        0.0043
     35 C         138.5068  150.2898  155.7226 C.3     1  UNL1        0.1109
     36 N         138.5968  148.9286  156.3463 N.am    1  UNL1       -0.2992
     37 C         139.2927  147.8155  155.6204 C.2     1  UNL1        0.2459
     38 O         139.8987  148.0637  154.2708 O.2     1  UNL1       -0.2701
     39 H         138.1991  148.7657  157.2320 H       1  UNL1        0.1498
@<TRIPOS>BOND
     1    35    36    1
     2    36    37   am
     3    37    38    2
     4    37    29    1
     5    29    30   ar
     6    30    31   ar
     7    31    32   ar
     8    32    28    1
     9    28    27    1
    10    27    21    1
    11    21    22   ar
    12    22    23   ar
    13    23    24   ar
    14    24     1    1
    15     1     2    2
    16     1     3    2
    17     1     4    1
    18     4    15    1
    19    15    16    2
    20    15    17   am
    21    17    18    1
    22     4     5    1
    23     5     6    1
    24     6     7    1
    25     7     8    1
    26     8     9    1
    27     9    10    1
    28    10    11    1
    29    11    12    1
    30     7    13    1
    31    24    25   ar
    32    25    26   ar
    33    32    33   ar
    34    33    34   ar
    35    34    29   ar
    36    26    21   ar
    37    13     4    1
    38    12     7    1
    39    36    39    1
    40    17    19    1
    41    18    20    1
    42    10    14    1
@<TRIPOS>MOLECULE
*****
 39 42 0 0 0
SMALL
GASTEIGER

@<TRIPOS>ATOM
      1 S         140.5986  138.9048  162.3171 S.O2    1  UNL1        0.0134
      2 O         140.6027  140.1908  161.9067 O.2     1  UNL1       -0.1683
      3 O         140.6180  137.4312  162.5973 O.2     1  UNL1       -0.1683
      4 C         140.4034  139.1800  163.7787 C.3     1  UNL1        0.1845
      5 C         141.8776  138.9163  163.8644 C.3     1  UNL1        0.0313
      6 C         142.2938  139.0717  165.2971 C.3     1  UNL1        0.0024
      7 C         141.0768  139.4314  166.0969 C.3     1  UNL1        0.0048
      8 C         139.7795  139.7843  166.7620 C.3     1  UNL1        0.0172
      9 C         139.7382  140.0333  168.2406 C.3     1  UNL1        0.0686
     10 N         140.9941  139.9294  169.0541 N.3     1  UNL1       -0.2975
     11 C         142.2915  139.5766  168.3890 C.3     1  UNL1        0.0686
     12 C         142.3328  139.3276  166.9104 C.3     1  UNL1        0.0172
     13 C         139.9085  139.4983  165.1585 C.3     1  UNL1        0.0314
     14 H         140.8257  139.2191  169.7664 H       1  UNL1        0.1232
     15 C         138.9701  139.3861  163.3876 C.2     1  UNL1        0.2644
     16 O         138.1093  138.4506  162.9332 O.2     1  UNL1       -0.2713
     17 N         138.3550  140.7508  163.4842 N.am    1  UNL1       -0.1956
     18 O         136.9216  140.9569  163.0931 O.3     1  UNL1       -0.2951
     19 H         138.8921  141.5113  163.8043 H       1  UNL1        0.1823
     20 H         136.5411  140.1131  162.8031 H       1  UNL1        0.2414
     21 C         141.1843  138.0791  157.9325 C.ar    1  UNL1        0.1391
     22 C         139.8206  138.4202  158.4559 C.ar    1  UNL1        0.0382
     23 C         139.6254  138.6955  159.9174 C.ar    1  UNL1        0.0215
     24 C         140.7938  138.6295  160.8556 C.ar    1  UNL1        0.1063
     25 C         142.1575  138.2884  160.3323 C.ar    1  UNL1        0.0215
     26 C         142.3528  138.0131  158.8708 C.ar    1  UNL1        0.0382
     27 O         141.3795  137.8039  156.4710 O.3     1  UNL1       -0.4706
     28 C         142.5768  137.0283  156.0072 C.3     1  UNL1        0.2320
     29 C         142.7059  132.5611  156.5331 C.ar    1  UNL1        0.0533
     30 C         141.7388  133.1746  155.5644 C.ar    1  UNL1        0.0043
     31 C         141.6958  134.6637  155.3891 C.ar    1  UNL1       -0.0005
     32 C         142.6198  135.5392  156.1825 C.ar    1  UNL1        0.0212
     33 C         143.5869  134.9257  157.1512 C.ar    1  UNL1       -0.0005
     34 C         143.6299  133.4366  157.3265 C.ar    1  UNL1        0.0043
     35 C         143.5007  128.9867  158.0638 C.3     1  UNL1        0.1109
     36 N         143.4576  130.4758  157.8885 N.am    1  UNL1       -0.2992
     37 C         142.7489  131.0720  156.7084 C.2     1  UNL1        0.2459
     38 O         142.0832  130.1790  155.7037 O.2     1  UNL1       -0.2701
     39 H         143.8945  131.0619  158.5479 H       1  UNL1        0.1498
@<TRIPOS>BOND
     1    35    36    1
     2    36    37   am
     3    37    38    2
     4    37    29    1
     5    29    30   ar
     6    30    31   ar
     7    31    32   ar
     8    32    28    1
     9    28    27    1
    10    27    21    1
    11    21    22   ar
    12    22    23   ar
    13    23    24   ar
    14    24     1    1
    15     1     2    2
    16     1     3    2
    17     1     4    1
    18     4    15    1
    19    15    16    2
    20    15    17   am
    21    17    18    1
    22     4     5    1
    23     5     6    1
    24     6     7    1
    25     7     8    1
    26     8     9    1
    27     9    10    1
    28    10    11    1
    29    11    12    1
    30     7    13    1
    31    24    25   ar
    32    25    26   ar
    33    32    33   ar
    34    33    34   ar
    35    34    29   ar
    36    26    21   ar
    37    13     4    1
    38    12     7    1
    39    36    39    1
    40    17    19    1
    41    18    20    1
    42    10    14    1
@<TRIPOS>MOLECULE
*****
 39 42 0 0 0
SMALL
GASTEIGER

@<TRIPOS>ATOM
      1 S         141.3210  139.3906  164.3470 S.O2    1  UNL1        0.0134
      2 O         141.2776  140.6704  163.9198 O.2     1  UNL1       -0.1683
      3 O         141.4332  137.9268  164.6552 O.2     1  UNL1       -0.1683
      4 C         140.8034  139.6425  165.7321 C.3     1  UNL1        0.1845
      5 C         142.2489  139.5435  166.1206 C.3     1  UNL1        0.0313
      6 C         142.3449  139.7439  167.6040 C.3     1  UNL1        0.0024
      7 C         140.9588  139.9668  168.1324 C.3     1  UNL1        0.0048
      8 C         139.5228  140.1739  168.5128 C.3     1  UNL1        0.0172
      9 C         139.1542  140.4168  169.9464 C.3     1  UNL1        0.0686
     10 N         140.2217  140.4526  170.9995 N.3     1  UNL1       -0.2975
     11 C         141.6577  140.2454  170.6192 C.3     1  UNL1        0.0686
     12 C         142.0263  140.0025  169.1856 C.3     1  UNL1        0.0172
     13 C         140.0061  139.9041  166.9755 C.3     1  UNL1        0.0314
     14 H         139.9895  139.7279  171.6788 H       1  UNL1        0.1232
     15 C         139.4662  139.6888  165.0542 C.2     1  UNL1        0.2644
     16 O         138.8140  138.6597  164.4726 O.2     1  UNL1       -0.2713
     17 N         138.7105  140.9820  164.9735 N.am    1  UNL1       -0.1956
     18 O         137.3732  141.0282  164.2956 O.3     1  UNL1       -0.2951
     19 H         139.0922  141.8005  165.3655 H       1  UNL1        0.1823
     20 H         137.1462  140.1440  163.9676 H       1  UNL1        0.2414
     21 C         142.8741  138.6348  160.1917 C.ar    1  UNL1        0.1391
     22 C         143.5327  137.9795  161.3693 C.ar    1  UNL1        0.0382
     23 C         143.0150  138.2314  162.7544 C.ar    1  UNL1        0.0215
     24 C         141.8387  139.1386  162.9619 C.ar    1  UNL1        0.1063
     25 C         141.1800  139.7940  161.7844 C.ar    1  UNL1        0.0215
     26 C         141.6977  139.5421  160.3993 C.ar    1  UNL1        0.0382
     27 O         143.3917  138.3829  158.8066 O.3     1  UNL1       -0.4706
     28 C         142.4354  138.2807  157.6555 C.3     1  UNL1        0.2320
     29 C         141.8089  134.3297  155.5947 C.ar    1  UNL1        0.0533
     30 C         140.9458  135.5047  155.2420 C.ar    1  UNL1        0.0043
     31 C         141.1547  136.8217  155.9289 C.ar    1  UNL1       -0.0005
     32 C         142.2265  136.9637  156.9686 C.ar    1  UNL1        0.0212
     33 C         143.0896  135.7886  157.3213 C.ar    1  UNL1       -0.0005
     34 C         142.8808  134.4716  156.6344 C.ar    1  UNL1        0.0043
     35 C         141.6576  130.4156  154.9562 C.3     1  UNL1        0.1109
     36 N         141.8665  131.7326  155.6432 N.am    1  UNL1       -0.2992
     37 C         141.6001  133.0127  154.9078 C.2     1  UNL1        0.2459
     38 O         141.1249  132.9756  153.4855 O.2     1  UNL1       -0.2701
     39 H         142.1783  131.7569  156.5766 H       1  UNL1        0.1498
@<TRIPOS>BOND
     1    35    36    1
     2    36    37   am
     3    37    38    2
     4    37    29    1
     5    29    30   ar
     6    30    31   ar
     7    31    32   ar
     8    32    28    1
     9    28    27    1
    10    27    21    1
    11    21    22   ar
    12    22    23   ar
    13    23    24   ar
    14    24     1    1
    15     1     2    2
    16     1     3    2
    17     1     4    1
    18     4    15    1
    19    15    16    2
    20    15    17   am
    21    17    18    1
    22     4     5    1
    23     5     6    1
    24     6     7    1
    25     7     8    1
    26     8     9    1
    27     9    10    1
    28    10    11    1
    29    11    12    1
    30     7    13    1
    31    24    25   ar
    32    25    26   ar
    33    32    33   ar
    34    33    34   ar
    35    34    29   ar
    36    26    21   ar
    37    13     4    1
    38    12     7    1
    39    36    39    1
    40    17    19    1
    41    18    20    1
    42    10    14    1
@<TRIPOS>MOLECULE
*****
 39 42 0 0 0
SMALL
GASTEIGER

@<TRIPOS>ATOM
      1 S         142.7576  140.0921  165.0330 S.O2    1  UNL1        0.0134
      2 O         144.0951  140.1800  164.8725 O.2     1  UNL1       -0.1683
      3 O         141.2693  139.9054  165.0513 O.2     1  UNL1       -0.1683
      4 C         142.6835  140.8111  166.3474 C.3     1  UNL1        0.1845
      5 C         142.5234  139.4315  166.9141 C.3     1  UNL1        0.0313
      6 C         142.3872  139.5548  168.4028 C.3     1  UNL1        0.0024
      7 C         142.4630  141.0107  168.7562 C.3     1  UNL1        0.0048
      8 C         142.5560  142.4944  168.9560 C.3     1  UNL1        0.0172
      9 C         142.4647  143.0723  170.3371 C.3     1  UNL1        0.0686
     10 N         142.2805  142.1665  171.5185 N.3     1  UNL1       -0.2975
     11 C         142.1875  140.6828  171.3187 C.3     1  UNL1        0.0686
     12 C         142.2788  140.1049  169.9376 C.3     1  UNL1        0.0172
     13 C         142.6461  141.7871  167.4859 C.3     1  UNL1        0.0314
     14 H         141.4181  142.4561  171.9799 H       1  UNL1        0.1232
     15 C         142.8590  142.0404  165.5060 C.2     1  UNL1        0.2644
     16 O         141.9987  142.5240  164.5848 O.2     1  UNL1       -0.2713
     17 N         144.0978  142.8745  165.6459 N.am    1  UNL1       -0.1956
     18 O         144.2732  144.1038  164.8045 O.3     1  UNL1       -0.2951
     19 H         144.7957  142.6152  166.2901 H       1  UNL1        0.1823
     20 H         143.5007  144.2143  164.2284 H       1  UNL1        0.2414
     21 C         142.9797  137.9352  161.0899 C.ar    1  UNL1        0.1391
     22 C         141.7067  137.9189  161.8830 C.ar    1  UNL1        0.0382
     23 C         141.6327  138.6379  163.1974 C.ar    1  UNL1        0.0215
     24 C         142.8316  139.3731  163.7186 C.ar    1  UNL1        0.1063
     25 C         144.1047  139.3895  162.9255 C.ar    1  UNL1        0.0215
     26 C         144.1787  138.6705  161.6112 C.ar    1  UNL1        0.0382
     27 O         143.0537  137.2162  159.7756 O.3     1  UNL1       -0.4706
     28 C         142.4913  137.8532  158.5394 C.3     1  UNL1        0.2320
     29 C         141.7945  142.2972  158.4162 C.ar    1  UNL1        0.0533
     30 C         143.1812  141.7505  158.2482 C.ar    1  UNL1        0.0043
     31 C         143.4134  140.2692  158.2893 C.ar    1  UNL1       -0.0005
     32 C         142.2590  139.3345  158.4983 C.ar    1  UNL1        0.0212
     33 C         140.8723  139.8812  158.6663 C.ar    1  UNL1       -0.0005
     34 C         140.6400  141.3626  158.6252 C.ar    1  UNL1        0.0043
     35 C         140.1999  145.8196  157.5216 C.3     1  UNL1        0.1109
     36 N         140.4322  144.3383  157.5627 N.am    1  UNL1       -0.2992
     37 C         141.5622  143.7785  158.3751 C.2     1  UNL1        0.2459
     38 O         142.4598  144.7001  159.1464 O.2     1  UNL1       -0.2701
     39 H         139.8430  143.7334  157.0565 H       1  UNL1        0.1498
@<TRIPOS>BOND
     1    35    36    1
     2    36    37   am
     3    37    38    2
     4    37    29    1
     5    29    30   ar
     6    30    31   ar
     7    31    32   ar
     8    32    28    1
     9    28    27    1
    10    27    21    1
    11    21    22   ar
    12    22    23   ar
    13    23    24   ar
    14    24     1    1
    15     1     2    2
    16     1     3    2
    17     1     4    1
    18     4    15    1
    19    15    16    2
    20    15    17   am
    21    17    18    1
    22     4     5    1
    23     5     6    1
    24     6     7    1
    25     7     8    1
    26     8     9    1
    27     9    10    1
    28    10    11    1
    29    11    12    1
    30     7    13    1
    31    24    25   ar
    32    25    26   ar
    33    32    33   ar
    34    33    34   ar
    35    34    29   ar
    36    26    21   ar
    37    13     4    1
    38    12     7    1
    39    36    39    1
    40    17    19    1
    41    18    20    1
    42    10    14    1
@<TRIPOS>MOLECULE
*****
 39 42 0 0 0
SMALL
GASTEIGER

@<TRIPOS>ATOM
      1 S         140.9963  142.2178  165.0752 S.O2    1  UNL1        0.0134
      2 O         141.4028  141.0568  164.5190 O.2     1  UNL1       -0.1683
      3 O         140.5811  143.5852  165.5312 O.2     1  UNL1       -0.1683
      4 C         140.6722  141.6668  166.4321 C.3     1  UNL1        0.1845
      5 C         141.8676  142.4617  166.8672 C.3     1  UNL1        0.0313
      6 C         142.0464  142.2599  168.3428 C.3     1  UNL1        0.0024
      7 C         140.9615  141.3403  168.8197 C.3     1  UNL1        0.0048
      8 C         139.8262  140.4167  169.1481 C.3     1  UNL1        0.0172
      9 C         139.6258  139.9462  170.5582 C.3     1  UNL1        0.0686
     10 N         140.5609  140.3994  171.6400 N.3     1  UNL1       -0.2975
     11 C         141.6962  141.3230  171.3117 C.3     1  UNL1        0.0686
     12 C         141.8966  141.7935  169.9016 C.3     1  UNL1        0.0172
     13 C         140.1122  140.9737  167.6389 C.3     1  UNL1        0.0314
     14 H         140.9729  139.5585  172.0444 H       1  UNL1        0.1232
     15 C         139.5446  140.9871  165.7135 C.2     1  UNL1        0.2644
     16 O         139.3415  139.6578  165.5937 O.2     1  UNL1       -0.2713
     17 N         138.4895  141.8051  165.0296 N.am    1  UNL1       -0.1956
     18 O         137.3619  141.1252  164.3110 O.3     1  UNL1       -0.2951
     19 H         138.5371  142.7882  165.0524 H       1  UNL1        0.1823
     20 H         137.4648  140.1635  164.3847 H       1  UNL1        0.2414
     21 C         141.9689  143.8707  161.0044 C.ar    1  UNL1        0.1391
     22 C         141.3580  144.7582  162.0479 C.ar    1  UNL1        0.0382
     23 C         141.0338  144.2073  163.4048 C.ar    1  UNL1        0.0215
     24 C         141.3205  142.7687  163.7183 C.ar    1  UNL1        0.1063
     25 C         141.9314  141.8811  162.6748 C.ar    1  UNL1        0.0215
     26 C         142.2556  142.4321  161.3178 C.ar    1  UNL1        0.0382
     27 O         142.2931  144.4216  159.6474 O.3     1  UNL1       -0.4706
     28 C         141.2155  145.0548  158.8179 C.3     1  UNL1        0.2320
     29 C         137.8834  142.5311  157.1512 C.ar    1  UNL1        0.0533
     30 C         138.2712  142.4033  158.5946 C.ar    1  UNL1        0.0043
     31 C         139.3819  143.2445  159.1502 C.ar    1  UNL1       -0.0005
     32 C         140.1048  144.2136  158.2624 C.ar    1  UNL1        0.0212
     33 C         139.7171  144.3414  156.8190 C.ar    1  UNL1       -0.0005
     34 C         138.6064  143.5002  156.2634 C.ar    1  UNL1        0.0043
     35 C         134.6182  141.4704  155.1603 C.3     1  UNL1        0.1109
     36 N         135.7289  142.3117  155.7159 N.am    1  UNL1       -0.2992
     37 C         136.7728  141.6899  156.5957 C.2     1  UNL1        0.2459
     38 O         136.7058  140.2268  156.9198 O.2     1  UNL1       -0.2701
     39 H         135.7728  143.2719  155.5031 H       1  UNL1        0.1498
@<TRIPOS>BOND
     1    35    36    1
     2    36    37   am
     3    37    38    2
     4    37    29    1
     5    29    30   ar
     6    30    31   ar
     7    31    32   ar
     8    32    28    1
     9    28    27    1
    10    27    21    1
    11    21    22   ar
    12    22    23   ar
    13    23    24   ar
    14    24     1    1
    15     1     2    2
    16     1     3    2
    17     1     4    1
    18     4    15    1
    19    15    16    2
    20    15    17   am
    21    17    18    1
    22     4     5    1
    23     5     6    1
    24     6     7    1
    25     7     8    1
    26     8     9    1
    27     9    10    1
    28    10    11    1
    29    11    12    1
    30     7    13    1
    31    24    25   ar
    32    25    26   ar
    33    32    33   ar
    34    33    34   ar
    35    34    29   ar
    36    26    21   ar
    37    13     4    1
    38    12     7    1
    39    36    39    1
    40    17    19    1
    41    18    20    1
    42    10    14    1
@<TRIPOS>MOLECULE
*****
 39 42 0 0 0
SMALL
GASTEIGER

@<TRIPOS>ATOM
      1 S         139.6936  143.0639  160.2289 S.O2    1  UNL1        0.0134
      2 O         141.0057  142.7878  160.3860 O.2     1  UNL1       -0.1683
      3 O         138.2066  143.2586  160.1960 O.2     1  UNL1       -0.1683
      4 C         139.8414  143.9968  159.0637 C.3     1  UNL1        0.1845
      5 C         139.2032  142.8807  158.2909 C.3     1  UNL1        0.0313
      6 C         139.0835  143.3165  156.8606 C.3     1  UNL1        0.0024
      7 C         139.6478  144.7019  156.7492 C.3     1  UNL1        0.0048
      8 C         140.2413  146.0788  156.7920 C.3     1  UNL1        0.0172
      9 C         140.3229  146.8995  155.5391 C.3     1  UNL1        0.0686
     10 N         139.8109  146.3433  154.2435 N.3     1  UNL1       -0.2975
     11 C         139.2174  144.9664  154.2008 C.3     1  UNL1        0.0686
     12 C         139.1359  144.1457  155.4536 C.3     1  UNL1        0.0172
     13 C         140.1162  145.1224  158.1108 C.3     1  UNL1        0.0314
     14 H         140.5953  146.3463  153.5915 H       1  UNL1        0.1232
     15 C         140.4487  144.9179  160.0798 C.2     1  UNL1        0.2644
     16 O         141.7367  145.3170  160.1476 O.2     1  UNL1       -0.2713
     17 N         139.5972  145.4988  161.1695 N.am    1  UNL1       -0.1956
     18 O         140.2046  146.4199  162.1856 O.3     1  UNL1       -0.2951
     19 H         138.6395  145.2755  161.2177 H       1  UNL1        0.1823
     20 H         141.1489  146.5337  161.9953 H       1  UNL1        0.2414
     21 C         139.2502  140.2652  163.7246 C.ar    1  UNL1        0.1391
     22 C         138.0966  141.1255  163.3015 C.ar    1  UNL1        0.0382
     23 C         138.2444  142.0584  162.1363 C.ar    1  UNL1        0.0215
     24 C         139.5458  142.1310  161.3941 C.ar    1  UNL1        0.1063
     25 C         140.6995  141.2707  161.8171 C.ar    1  UNL1        0.0215
     26 C         140.5517  140.3378  162.9824 C.ar    1  UNL1        0.0382
     27 O         139.1023  139.3323  164.8898 O.3     1  UNL1       -0.4706
     28 C         138.6693  139.8622  166.2247 C.3     1  UNL1        0.2320
     29 C         141.6543  141.8802  168.9204 C.ar    1  UNL1        0.0533
     30 C         141.0514  140.5660  169.3198 C.ar    1  UNL1        0.0043
     31 C         140.0564  139.8934  168.4212 C.ar    1  UNL1       -0.0005
     32 C         139.6643  140.5349  167.1233 C.ar    1  UNL1        0.0212
     33 C         140.2672  141.8491  166.7239 C.ar    1  UNL1       -0.0005
     34 C         141.2622  142.5217  167.6225 C.ar    1  UNL1        0.0043
     35 C         145.0966  143.2504  170.3430 C.3     1  UNL1        0.1109
     36 N         144.1016  142.5777  169.4444 N.am    1  UNL1       -0.2992
     37 C         142.6492  142.5529  169.8190 C.2     1  UNL1        0.2459
     38 O         142.1920  143.2008  171.0923 O.2     1  UNL1       -0.2701
     39 H         144.4017  142.1525  168.6087 H       1  UNL1        0.1498
@<TRIPOS>BOND
     1    35    36    1
     2    36    37   am
     3    37    38    2
     4    37    29    1
     5    29    30   ar
     6    30    31   ar
     7    31    32   ar
     8    32    28    1
     9    28    27    1
    10    27    21    1
    11    21    22   ar
    12    22    23   ar
    13    23    24   ar
    14    24     1    1
    15     1     2    2
    16     1     3    2
    17     1     4    1
    18     4    15    1
    19    15    16    2
    20    15    17   am
    21    17    18    1
    22     4     5    1
    23     5     6    1
    24     6     7    1
    25     7     8    1
    26     8     9    1
    27     9    10    1
    28    10    11    1
    29    11    12    1
    30     7    13    1
    31    24    25   ar
    32    25    26   ar
    33    32    33   ar
    34    33    34   ar
    35    34    29   ar
    36    26    21   ar
    37    13     4    1
    38    12     7    1
    39    36    39    1
    40    17    19    1
    41    18    20    1
    42    10    14    1
@<TRIPOS>MOLECULE
*****
 39 42 0 0 0
SMALL
GASTEIGER

@<TRIPOS>ATOM
      1 S         139.2305  140.0831  164.8921 S.O2    1  UNL1        0.0134
      2 O         140.5123  139.8256  164.5558 O.2     1  UNL1       -0.1683
      3 O         137.7690  140.3598  165.0868 O.2     1  UNL1       -0.1683
      4 C         139.4457  140.1778  166.3736 C.3     1  UNL1        0.1845
      5 C         140.0628  141.5038  166.0404 C.3     1  UNL1        0.0313
      6 C         140.5210  142.1366  167.3209 C.3     1  UNL1        0.0024
      7 C         140.1870  141.2018  168.4455 C.3     1  UNL1        0.0048
      8 C         139.7932  140.1707  169.4613 C.3     1  UNL1        0.0172
      9 C         140.0745  140.4053  170.9158 C.3     1  UNL1        0.0686
     10 N         140.7495  141.6709  171.3546 N.3     1  UNL1       -0.2975
     11 C         141.1433  142.7020  170.3389 C.3     1  UNL1        0.0686
     12 C         140.8621  142.4674  168.8843 C.3     1  UNL1        0.0172
     13 C         139.5225  139.9911  167.8600 C.3     1  UNL1        0.0314
     14 H         141.6028  141.3961  171.8413 H       1  UNL1        0.1232
     15 C         138.7836  138.8321  166.3971 C.2     1  UNL1        0.2644
     16 O         139.1385  137.7396  165.6879 O.2     1  UNL1       -0.2713
     17 N         137.5930  138.5972  167.2787 N.am    1  UNL1       -0.1956
     18 O         136.9310  137.2514  167.3021 O.3     1  UNL1       -0.2951
     19 H         137.2460  139.3263  167.8419 H       1  UNL1        0.1823
     20 H         137.3935  136.6529  166.6948 H       1  UNL1        0.2414
     21 C         138.5849  139.7991  160.4478 C.ar    1  UNL1        0.1391
     22 C         139.8373  139.2461  161.0606 C.ar    1  UNL1        0.0382
     23 C         140.0525  139.3408  162.5420 C.ar    1  UNL1        0.0215
     24 C         139.0153  139.9884  163.4107 C.ar    1  UNL1        0.1063
     25 C         137.7628  140.5414  162.7979 C.ar    1  UNL1        0.0215
     26 C         137.5476  140.4467  161.3165 C.ar    1  UNL1        0.0382
     27 O         138.3697  139.7044  158.9664 O.3     1  UNL1       -0.4706
     28 C         138.8799  140.7883  158.0635 C.3     1  UNL1        0.2320
     29 C         143.2952  141.1769  157.2870 C.ar    1  UNL1        0.0533
     30 C         142.5327  140.0178  156.7170 C.ar    1  UNL1        0.0043
     31 C         141.0609  139.8882  156.9759 C.ar    1  UNL1       -0.0005
     32 C         140.3517  140.9178  157.8047 C.ar    1  UNL1        0.0212
     33 C         141.1143  142.0770  158.3746 C.ar    1  UNL1       -0.0005
     34 C         142.5860  142.2065  158.1158 C.ar    1  UNL1        0.0043
     35 C         146.9548  142.7042  157.1288 C.3     1  UNL1        0.1109
     36 N         145.4831  142.5746  157.3876 N.am    1  UNL1       -0.2992
     37 C         144.7670  141.3065  157.0281 C.2     1  UNL1        0.2459
     38 O         145.5229  140.1679  156.4097 O.2     1  UNL1       -0.2701
     39 H         144.9870  143.3219  157.7935 H       1  UNL1        0.1498
@<TRIPOS>BOND
     1    35    36    1
     2    36    37   am
     3    37    38    2
     4    37    29    1
     5    29    30   ar
     6    30    31   ar
     7    31    32   ar
     8    32    28    1
     9    28    27    1
    10    27    21    1
    11    21    22   ar
    12    22    23   ar
    13    23    24   ar
    14    24     1    1
    15     1     2    2
    16     1     3    2
    17     1     4    1
    18     4    15    1
    19    15    16    2
    20    15    17   am
    21    17    18    1
    22     4     5    1
    23     5     6    1
    24     6     7    1
    25     7     8    1
    26     8     9    1
    27     9    10    1
    28    10    11    1
    29    11    12    1
    30     7    13    1
    31    24    25   ar
    32    25    26   ar
    33    32    33   ar
    34    33    34   ar
    35    34    29   ar
    36    26    21   ar
    37    13     4    1
    38    12     7    1
    39    36    39    1
    40    17    19    1
    41    18    20    1
    42    10    14    1
