@<TRIPOS>MOLECULE
*****
 36 40 0 0 0
SMALL
GASTEIGER

@<TRIPOS>ATOM
      1 N         137.8478  142.9668  162.9256 N.3     1  UNL1       -0.2710
      2 C         138.0814  142.6810  161.4717 C.3     1  UNL1        0.0735
      3 C         138.1166  141.2637  160.9821 C.3     1  UNL1        0.0331
      4 C         137.9183  140.1320  161.9464 C.3     1  UNL1        0.0570
      5 C         137.6848  140.4177  163.4003 C.3     1  UNL1        0.0331
      6 C         137.6495  141.8351  163.8899 C.3     1  UNL1        0.0735
      7 N         137.9536  138.7145  161.4569 N.3     1  UNL1       -0.2934
      8 H         137.3714  138.6774  160.6202 H       1  UNL1        0.1236
      9 C         139.2636  138.0762  161.1015 C.3     1  UNL1        0.1152
     10 C         140.4537  138.2580  161.9962 C.ar    1  UNL1        0.0765
     11 C         140.5993  137.4183  163.2305 C.ar    1  UNL1        0.0193
     12 C         141.7894  137.6001  164.1254 C.ar    1  UNL1        0.0411
     13 C         142.8339  138.6217  163.7858 C.ar    1  UNL1        0.1708
     14 C         142.6883  139.4615  162.5513 C.ar    1  UNL1        0.1682
     15 N         141.4982  139.2796  161.6566 N.ar    1  UNL1       -0.2304
     16 N         143.7328  140.4831  162.2117 N.am    1  UNL1       -0.2639
     17 C         144.9230  140.6649  163.1066 C.2     1  UNL1        0.2718
     18 O         145.9675  141.6865  162.7669 O.2     1  UNL1       -0.2707
     19 C         145.0685  139.8252  164.3409 C.3     1  UNL1        0.2898
     20 O         144.0240  138.8036  164.6805 O.3     1  UNL1       -0.4628
     21 H         143.6373  141.0342  161.4016 H       1  UNL1        0.1565
     22 C         137.8126  144.3843  163.4151 C.3     1  UNL1        0.0970
     23 C         138.9030  144.8964  164.3087 C.3     1  UNL1        0.1264
     24 C         140.8357  142.1430  167.2976 C.ar    1  UNL1        0.1403
     25 C         142.2498  141.6870  167.0923 C.ar    1  UNL1        0.0385
     26 C         143.0197  142.1487  165.8906 C.ar    1  UNL1        0.0237
     27 C         142.3755  143.0665  164.8943 C.ar    1  UNL1        0.0975
     28 N         143.1455  143.5282  163.6926 N.ar    1  UNL1       -0.2374
     29 C         142.5013  144.4460  162.6963 C.ar    1  UNL1        0.1594
     30 C         141.0871  144.9021  162.9017 C.ar    1  UNL1        0.2803
     31 O         140.4429  145.8199  161.9054 O.2     1  UNL1       -0.2653
     32 N         140.3172  144.4404  164.1033 N.ar    1  UNL1       -0.2913
     33 C         140.9614  143.5225  165.0997 C.ar    1  UNL1        0.0832
     34 C         140.1915  143.0608  166.3013 C.ar    1  UNL1        0.0557
     35 C         139.6445  140.2463  168.6142 C.3     1  UNL1        0.2525
     36 O         140.0657  141.6813  168.4993 O.3     1  UNL1       -0.4714
@<TRIPOS>BOND
     1    35    36    1
     2    36    24    1
     3    24    25   ar
     4    25    26   ar
     5    26    27   ar
     6    27    28   ar
     7    28    29   ar
     8    29    30   ar
     9    30    31    2
    10    30    32   ar
    11    32    23    1
    12    23    22    1
    13    22     1    1
    14     1     2    1
    15     2     3    1
    16     3     4    1
    17     4     7    1
    18     7     9    1
    19     9    10    1
    20    10    11   ar
    21    11    12   ar
    22    12    13   ar
    23    13    14   ar
    24    14    15   ar
    25    14    16    1
    26    16    17   am
    27    17    18    2
    28    17    19    1
    29    19    20    1
    30     4     5    1
    31     5     6    1
    32    32    33   ar
    33    33    34   ar
    34    34    24   ar
    35    33    27   ar
    36     6     1    1
    37    15    10   ar
    38    20    13    1
    39     7     8    1
    40    16    21    1
@<TRIPOS>MOLECULE
*****
 36 40 0 0 0
SMALL
GASTEIGER

@<TRIPOS>ATOM
      1 N         141.8003  138.2135  163.9213 N.3     1  UNL1       -0.2710
      2 C         142.7412  138.6635  164.9994 C.3     1  UNL1        0.0735
      3 C         143.9651  139.4547  164.6445 C.3     1  UNL1        0.0331
      4 C         144.2480  139.7961  163.2116 C.3     1  UNL1        0.0570
      5 C         143.3071  139.3461  162.1335 C.3     1  UNL1        0.0331
      6 C         142.0832  138.5549  162.4884 C.3     1  UNL1        0.0735
      7 N         145.4719  140.5874  162.8566 N.3     1  UNL1       -0.2934
      8 H         145.5550  140.5612  161.8403 H       1  UNL1        0.1236
      9 C         145.5779  142.0274  163.2628 C.3     1  UNL1        0.1152
     10 C         144.3890  142.9328  163.1327 C.ar    1  UNL1        0.0765
     11 C         143.7943  143.5698  164.3535 C.ar    1  UNL1        0.0193
     12 C         142.6054  144.4752  164.2235 C.ar    1  UNL1        0.0411
     13 C         142.0112  144.7435  162.8726 C.ar    1  UNL1        0.1708
     14 C         142.6060  144.1064  161.6517 C.ar    1  UNL1        0.1682
     15 N         143.7948  143.2010  161.7818 N.ar    1  UNL1       -0.2304
     16 N         142.0118  144.3746  160.3008 N.am    1  UNL1       -0.2639
     17 C         140.8228  145.2800  160.1707 C.2     1  UNL1        0.2718
     18 O         140.2287  145.5483  158.8198 O.2     1  UNL1       -0.2707
     19 C         140.2282  145.9171  161.3916 C.3     1  UNL1        0.2898
     20 O         140.8224  145.6488  162.7425 O.3     1  UNL1       -0.4628
     21 H         142.4021  143.9565  159.4995 H       1  UNL1        0.1565
     22 C         140.5763  137.4222  164.2762 C.3     1  UNL1        0.0970
     23 C         139.3317  138.1278  164.7268 C.3     1  UNL1        0.1264
     24 C         140.1772  142.1272  166.6083 C.ar    1  UNL1        0.1403
     25 C         139.7388  143.3867  165.9217 C.ar    1  UNL1        0.0385
     26 C         139.0186  143.3131  164.6080 C.ar    1  UNL1        0.0237
     27 C         138.7367  141.9800  163.9809 C.ar    1  UNL1        0.0975
     28 N         138.0165  141.9064  162.6671 N.ar    1  UNL1       -0.2374
     29 C         137.7346  140.5733  162.0400 C.ar    1  UNL1        0.1594
     30 C         138.1730  139.3137  162.7265 C.ar    1  UNL1        0.2803
     31 O         137.8912  137.9806  162.0994 O.2     1  UNL1       -0.2653
     32 N         138.8933  139.3873  164.0402 N.ar    1  UNL1       -0.2913
     33 C         139.1751  140.7205  164.6674 C.ar    1  UNL1        0.0832
     34 C         139.8953  140.7941  165.9811 C.ar    1  UNL1        0.0557
     35 C         142.3946  142.1183  167.9621 C.3     1  UNL1        0.2525
     36 O         140.8974  142.2007  167.9220 O.3     1  UNL1       -0.4714
@<TRIPOS>BOND
     1    35    36    1
     2    36    24    1
     3    24    25   ar
     4    25    26   ar
     5    26    27   ar
     6    27    28   ar
     7    28    29   ar
     8    29    30   ar
     9    30    31    2
    10    30    32   ar
    11    32    23    1
    12    23    22    1
    13    22     1    1
    14     1     2    1
    15     2     3    1
    16     3     4    1
    17     4     7    1
    18     7     9    1
    19     9    10    1
    20    10    11   ar
    21    11    12   ar
    22    12    13   ar
    23    13    14   ar
    24    14    15   ar
    25    14    16    1
    26    16    17   am
    27    17    18    2
    28    17    19    1
    29    19    20    1
    30     4     5    1
    31     5     6    1
    32    32    33   ar
    33    33    34   ar
    34    34    24   ar
    35    33    27   ar
    36     6     1    1
    37    15    10   ar
    38    20    13    1
    39     7     8    1
    40    16    21    1
@<TRIPOS>MOLECULE
*****
 36 40 0 0 0
SMALL
GASTEIGER

@<TRIPOS>ATOM
      1 N         142.6963  144.2853  163.3753 N.3     1  UNL1       -0.2710
      2 C         142.5489  143.6782  162.0116 C.3     1  UNL1        0.0735
      3 C         141.1866  143.5209  161.4038 C.3     1  UNL1        0.0331
      4 C         139.9717  143.9706  162.1599 C.3     1  UNL1        0.0570
      5 C         140.1190  144.5777  163.5236 C.3     1  UNL1        0.0331
      6 C         141.4813  144.7351  164.1313 C.3     1  UNL1        0.0735
      7 N         138.6093  143.8133  161.5521 N.3     1  UNL1       -0.2934
      8 H         138.5391  144.5032  160.8042 H       1  UNL1        0.1236
      9 C         138.1972  142.4956  160.9659 C.3     1  UNL1        0.1152
     10 C         138.3706  141.2346  161.7595 C.ar    1  UNL1        0.0765
     11 C         138.8699  139.9892  161.0889 C.ar    1  UNL1        0.0193
     12 C         139.0433  138.7281  161.8825 C.ar    1  UNL1        0.0411
     13 C         138.7174  138.7125  163.3466 C.ar    1  UNL1        0.1708
     14 C         138.2181  139.9580  164.0171 C.ar    1  UNL1        0.1682
     15 N         138.0447  141.2190  163.2235 N.ar    1  UNL1       -0.2304
     16 N         137.8922  139.9424  165.4812 N.am    1  UNL1       -0.2639
     17 C         138.0656  138.6813  166.2748 C.2     1  UNL1        0.2718
     18 O         137.7397  138.6657  167.7389 O.2     1  UNL1       -0.2707
     19 C         138.5649  137.4359  165.6042 C.3     1  UNL1        0.2898
     20 O         138.8908  137.4515  164.1402 O.3     1  UNL1       -0.4628
     21 H         137.5645  140.7598  165.9213 H       1  UNL1        0.1565
     22 C         144.0587  144.4426  163.9830 C.3     1  UNL1        0.0970
     23 C         144.5230  143.4859  165.0408 C.3     1  UNL1        0.1264
     24 C         141.3226  141.6618  167.6254 C.ar    1  UNL1        0.1403
     25 C         141.0051  140.2007  167.5067 C.ar    1  UNL1        0.0385
     26 C         141.7544  139.3475  166.5266 C.ar    1  UNL1        0.0237
     27 C         142.8211  139.9555  165.6651 C.ar    1  UNL1        0.0975
     28 N         143.5704  139.1023  164.6849 N.ar    1  UNL1       -0.2374
     29 C         144.6372  139.7103  163.8234 C.ar    1  UNL1        0.1594
     30 C         144.9548  141.1716  163.9420 C.ar    1  UNL1        0.2803
     31 O         146.0216  141.7795  163.0805 O.2     1  UNL1       -0.2653
     32 N         144.2055  142.0247  164.9222 N.ar    1  UNL1       -0.2913
     33 C         143.1387  141.4167  165.7837 C.ar    1  UNL1        0.0832
     34 C         142.3894  142.2698  166.7639 C.ar    1  UNL1        0.0557
     35 C         140.0656  141.9183  169.8846 C.3     1  UNL1        0.2525
     36 O         140.5734  142.5150  168.6055 O.3     1  UNL1       -0.4714
@<TRIPOS>BOND
     1    35    36    1
     2    36    24    1
     3    24    25   ar
     4    25    26   ar
     5    26    27   ar
     6    27    28   ar
     7    28    29   ar
     8    29    30   ar
     9    30    31    2
    10    30    32   ar
    11    32    23    1
    12    23    22    1
    13    22     1    1
    14     1     2    1
    15     2     3    1
    16     3     4    1
    17     4     7    1
    18     7     9    1
    19     9    10    1
    20    10    11   ar
    21    11    12   ar
    22    12    13   ar
    23    13    14   ar
    24    14    15   ar
    25    14    16    1
    26    16    17   am
    27    17    18    2
    28    17    19    1
    29    19    20    1
    30     4     5    1
    31     5     6    1
    32    32    33   ar
    33    33    34   ar
    34    34    24   ar
    35    33    27   ar
    36     6     1    1
    37    15    10   ar
    38    20    13    1
    39     7     8    1
    40    16    21    1
@<TRIPOS>MOLECULE
*****
 36 40 0 0 0
SMALL
GASTEIGER

@<TRIPOS>ATOM
      1 N         138.9336  143.0613  162.8344 N.3     1  UNL1       -0.2710
      2 C         139.5680  143.6054  161.5889 C.3     1  UNL1        0.0735
      3 C         140.8480  144.3824  161.6770 C.3     1  UNL1        0.0331
      4 C         141.4935  144.6153  163.0108 C.3     1  UNL1        0.0570
      5 C         140.8591  144.0712  164.2564 C.3     1  UNL1        0.0331
      6 C         139.5791  143.2942  164.1682 C.3     1  UNL1        0.0735
      7 N         142.7736  145.3924  163.0991 N.3     1  UNL1       -0.2934
      8 H         142.7701  145.8638  164.0036 H       1  UNL1        0.1236
      9 C         144.0906  144.6836  162.9852 C.3     1  UNL1        0.1152
     10 C         144.1300  143.1889  162.8653 C.ar    1  UNL1        0.0765
     11 C         144.4779  142.3497  164.0588 C.ar    1  UNL1        0.0193
     12 C         144.5173  140.8550  163.9389 C.ar    1  UNL1        0.0411
     13 C         144.2088  140.1995  162.6255 C.ar    1  UNL1        0.1708
     14 C         143.8609  141.0389  161.4319 C.ar    1  UNL1        0.1682
     15 N         143.8215  142.5335  161.5518 N.ar    1  UNL1       -0.2304
     16 N         143.5524  140.3835  160.1184 N.am    1  UNL1       -0.2639
     17 C         143.5918  138.8887  159.9985 C.2     1  UNL1        0.2718
     18 O         143.2833  138.2333  158.6850 O.2     1  UNL1       -0.2707
     19 C         143.9397  138.0495  161.1920 C.3     1  UNL1        0.2898
     20 O         144.2482  138.7049  162.5055 O.3     1  UNL1       -0.4628
     21 H         143.3241  140.9343  159.3350 H       1  UNL1        0.1565
     22 C         137.6535  142.2842  162.7462 C.3     1  UNL1        0.0970
     23 C         137.5700  140.9071  163.3349 C.3     1  UNL1        0.1264
     24 C         140.9100  139.3611  165.9243 C.ar    1  UNL1        0.1403
     25 C         141.8095  138.2730  165.4176 C.ar    1  UNL1        0.0385
     26 C         141.5958  137.7002  164.0478 C.ar    1  UNL1        0.0237
     27 C         140.4825  138.2155  163.1847 C.ar    1  UNL1        0.0975
     28 N         140.2688  137.6428  161.8150 N.ar    1  UNL1       -0.2374
     29 C         139.1555  138.1581  160.9519 C.ar    1  UNL1        0.1594
     30 C         138.2559  139.2462  161.4585 C.ar    1  UNL1        0.2803
     31 O         137.1426  139.7616  160.5954 O.2     1  UNL1       -0.2653
     32 N         138.4696  139.8190  162.8283 N.ar    1  UNL1       -0.2913
     33 C         139.5830  139.3036  163.6914 C.ar    1  UNL1        0.0832
     34 C         139.7967  139.8764  165.0612 C.ar    1  UNL1        0.0557
     35 C         142.4810  139.8718  167.9295 C.3     1  UNL1        0.2525
     36 O         141.1237  139.9339  167.2940 O.3     1  UNL1       -0.4714
@<TRIPOS>BOND
     1    35    36    1
     2    36    24    1
     3    24    25   ar
     4    25    26   ar
     5    26    27   ar
     6    27    28   ar
     7    28    29   ar
     8    29    30   ar
     9    30    31    2
    10    30    32   ar
    11    32    23    1
    12    23    22    1
    13    22     1    1
    14     1     2    1
    15     2     3    1
    16     3     4    1
    17     4     7    1
    18     7     9    1
    19     9    10    1
    20    10    11   ar
    21    11    12   ar
    22    12    13   ar
    23    13    14   ar
    24    14    15   ar
    25    14    16    1
    26    16    17   am
    27    17    18    2
    28    17    19    1
    29    19    20    1
    30     4     5    1
    31     5     6    1
    32    32    33   ar
    33    33    34   ar
    34    34    24   ar
    35    33    27   ar
    36     6     1    1
    37    15    10   ar
    38    20    13    1
    39     7     8    1
    40    16    21    1
@<TRIPOS>MOLECULE
*****
 36 40 0 0 0
SMALL
GASTEIGER

@<TRIPOS>ATOM
      1 N         139.4313  138.0298  164.5070 N.3     1  UNL1       -0.2710
      2 C         140.8670  137.7440  164.8345 C.3     1  UNL1        0.0735
      3 C         141.8587  137.5250  163.7307 C.3     1  UNL1        0.0331
      4 C         141.4148  137.5918  162.2995 C.3     1  UNL1        0.0570
      5 C         139.9792  137.8775  161.9720 C.3     1  UNL1        0.0331
      6 C         138.9874  138.0965  163.0758 C.3     1  UNL1        0.0735
      7 N         142.4066  137.3728  161.1956 N.3     1  UNL1       -0.2934
      8 H         141.9217  137.5711  160.3204 H       1  UNL1        0.1236
      9 C         143.6851  138.1569  161.1695 C.3     1  UNL1        0.1152
     10 C         143.6582  139.6424  161.3756 C.ar    1  UNL1        0.0765
     11 C         143.2522  140.5482  160.2510 C.ar    1  UNL1        0.0193
     12 C         143.2253  142.0338  160.4570 C.ar    1  UNL1        0.0411
     13 C         143.6043  142.6135  161.7876 C.ar    1  UNL1        0.1708
     14 C         144.0103  141.7076  162.9121 C.ar    1  UNL1        0.1682
     15 N         144.0372  140.2220  162.7061 N.ar    1  UNL1       -0.2304
     16 N         144.3893  142.2872  164.2427 N.am    1  UNL1       -0.2639
     17 C         144.3623  143.7728  164.4487 C.2     1  UNL1        0.2718
     18 O         144.7413  144.3525  165.7792 O.2     1  UNL1       -0.2707
     19 C         143.9564  144.6787  163.3241 C.3     1  UNL1        0.2898
     20 O         143.5773  144.0990  161.9936 O.3     1  UNL1       -0.4628
     21 H         144.6557  141.6927  164.9807 H       1  UNL1        0.1565
     22 C         138.4395  138.2488  165.6109 C.3     1  UNL1        0.0970
     23 C         138.0540  139.6432  166.0070 C.3     1  UNL1        0.1264
     24 C         138.6119  142.8461  162.8957 C.ar    1  UNL1        0.1403
     25 C         139.6700  143.8933  163.0788 C.ar    1  UNL1        0.0385
     26 C         140.5421  143.8731  164.2990 C.ar    1  UNL1        0.0237
     27 C         140.3562  142.8055  165.3361 C.ar    1  UNL1        0.0975
     28 N         141.2283  142.7852  166.5564 N.ar    1  UNL1       -0.2374
     29 C         141.0423  141.7176  167.5935 C.ar    1  UNL1        0.1594
     30 C         139.9842  140.6702  167.4104 C.ar    1  UNL1        0.2803
     31 O         139.7983  139.6026  168.4475 O.2     1  UNL1       -0.2653
     32 N         139.1121  140.6905  166.1901 N.ar    1  UNL1       -0.2913
     33 C         139.2981  141.7582  165.1530 C.ar    1  UNL1        0.0832
     34 C         138.4259  141.7785  163.9328 C.ar    1  UNL1        0.0557
     35 C         138.2744  142.3743  160.3632 C.3     1  UNL1        0.2525
     36 O         137.7398  142.8664  161.6754 O.3     1  UNL1       -0.4714
@<TRIPOS>BOND
     1    35    36    1
     2    36    24    1
     3    24    25   ar
     4    25    26   ar
     5    26    27   ar
     6    27    28   ar
     7    28    29   ar
     8    29    30   ar
     9    30    31    2
    10    30    32   ar
    11    32    23    1
    12    23    22    1
    13    22     1    1
    14     1     2    1
    15     2     3    1
    16     3     4    1
    17     4     7    1
    18     7     9    1
    19     9    10    1
    20    10    11   ar
    21    11    12   ar
    22    12    13   ar
    23    13    14   ar
    24    14    15   ar
    25    14    16    1
    26    16    17   am
    27    17    18    2
    28    17    19    1
    29    19    20    1
    30     4     5    1
    31     5     6    1
    32    32    33   ar
    33    33    34   ar
    34    34    24   ar
    35    33    27   ar
    36     6     1    1
    37    15    10   ar
    38    20    13    1
    39     7     8    1
    40    16    21    1
@<TRIPOS>MOLECULE
*****
 36 40 0 0 0
SMALL
GASTEIGER

@<TRIPOS>ATOM
      1 N         143.0721  139.1284  161.8255 N.3     1  UNL1       -0.2710
      2 C         142.2959  139.6188  160.6393 C.3     1  UNL1        0.0735
      3 C         140.8825  139.1634  160.4275 C.3     1  UNL1        0.0331
      4 C         140.2454  138.2175  161.4018 C.3     1  UNL1        0.0570
      5 C         141.0216  137.7270  162.5879 C.3     1  UNL1        0.0331
      6 C         142.4349  138.1825  162.7998 C.3     1  UNL1        0.0735
      7 N         138.8319  137.7620  161.1900 N.3     1  UNL1       -0.2934
      8 H         138.7904  136.7855  161.4817 H       1  UNL1        0.1236
      9 C         137.7044  138.4690  161.8820 C.3     1  UNL1        0.1152
     10 C         137.9586  139.7591  162.6038 C.ar    1  UNL1        0.0765
     11 C         138.0490  139.7756  164.1010 C.ar    1  UNL1        0.0193
     12 C         138.3033  141.0658  164.8228 C.ar    1  UNL1        0.0411
     13 C         138.4671  142.3393  164.0475 C.ar    1  UNL1        0.1708
     14 C         138.3767  142.3228  162.5502 C.ar    1  UNL1        0.1682
     15 N         138.1225  141.0327  161.8285 N.ar    1  UNL1       -0.2304
     16 N         138.5405  143.5963  161.7749 N.am    1  UNL1       -0.2639
     17 C         138.7947  144.8864  162.4967 C.2     1  UNL1        0.2718
     18 O         138.9585  146.1600  161.7214 O.2     1  UNL1       -0.2707
     19 C         138.8851  144.9030  163.9939 C.3     1  UNL1        0.2898
     20 O         138.7213  143.6294  164.7693 O.3     1  UNL1       -0.4628
     21 H         138.4812  143.5855  160.7922 H       1  UNL1        0.1565
     22 C         144.4855  139.5839  162.0373 C.3     1  UNL1        0.0970
     23 C         144.8241  140.4589  163.2076 C.3     1  UNL1        0.1264
     24 C         142.6651  140.2204  167.1487 C.ar    1  UNL1        0.1403
     25 C         141.7298  141.3189  167.5591 C.ar    1  UNL1        0.0385
     26 C         141.5142  142.4969  166.6559 C.ar    1  UNL1        0.0237
     27 C         142.2339  142.5765  165.3423 C.ar    1  UNL1        0.0975
     28 N         142.0183  143.7545  164.4391 N.ar    1  UNL1       -0.2374
     29 C         142.7380  143.8340  163.1254 C.ar    1  UNL1        0.1594
     30 C         143.6733  142.7355  162.7149 C.ar    1  UNL1        0.2803
     31 O         144.3929  142.8150  161.4013 O.2     1  UNL1       -0.2653
     32 N         143.8889  141.5574  163.6181 N.ar    1  UNL1       -0.2913
     33 C         143.1691  141.4779  164.9318 C.ar    1  UNL1        0.0832
     34 C         143.3847  140.2999  165.8350 C.ar    1  UNL1        0.0557
     35 C         142.4888  139.1240  169.4974 C.3     1  UNL1        0.2525
     36 O         142.8807  139.0423  168.0518 O.3     1  UNL1       -0.4714
@<TRIPOS>BOND
     1    35    36    1
     2    36    24    1
     3    24    25   ar
     4    25    26   ar
     5    26    27   ar
     6    27    28   ar
     7    28    29   ar
     8    29    30   ar
     9    30    31    2
    10    30    32   ar
    11    32    23    1
    12    23    22    1
    13    22     1    1
    14     1     2    1
    15     2     3    1
    16     3     4    1
    17     4     7    1
    18     7     9    1
    19     9    10    1
    20    10    11   ar
    21    11    12   ar
    22    12    13   ar
    23    13    14   ar
    24    14    15   ar
    25    14    16    1
    26    16    17   am
    27    17    18    2
    28    17    19    1
    29    19    20    1
    30     4     5    1
    31     5     6    1
    32    32    33   ar
    33    33    34   ar
    34    34    24   ar
    35    33    27   ar
    36     6     1    1
    37    15    10   ar
    38    20    13    1
    39     7     8    1
    40    16    21    1
@<TRIPOS>MOLECULE
*****
 36 40 0 0 0
SMALL
GASTEIGER

@<TRIPOS>ATOM
      1 N         138.0642  141.0276  163.7509 N.3     1  UNL1       -0.2710
      2 C         137.9513  141.3600  162.2926 C.3     1  UNL1        0.0735
      3 C         138.1082  142.7791  161.8325 C.3     1  UNL1        0.0331
      4 C         138.3778  143.8656  162.8308 C.3     1  UNL1        0.0570
      5 C         138.4906  143.5332  164.2891 C.3     1  UNL1        0.0331
      6 C         138.3338  142.1141  164.7492 C.3     1  UNL1        0.0735
      7 N         138.5346  145.2848  162.3708 N.3     1  UNL1       -0.2934
      8 H         138.0909  145.8735  163.0756 H       1  UNL1        0.1236
      9 C         139.9040  145.8495  162.1344 C.3     1  UNL1        0.1152
     10 C         141.1189  145.0379  162.4737 C.ar    1  UNL1        0.0765
     11 C         142.0112  145.4597  163.6032 C.ar    1  UNL1        0.0193
     12 C         143.2262  144.6480  163.9425 C.ar    1  UNL1        0.0411
     13 C         143.5487  143.4145  163.1523 C.ar    1  UNL1        0.1708
     14 C         142.6563  142.9927  162.0228 C.ar    1  UNL1        0.1682
     15 N         141.4414  143.8043  161.6835 N.ar    1  UNL1       -0.2304
     16 N         142.9789  141.7591  161.2326 N.am    1  UNL1       -0.2639
     17 C         144.1939  140.9474  161.5720 C.2     1  UNL1        0.2718
     18 O         144.5164  139.7139  160.7818 O.2     1  UNL1       -0.2707
     19 C         145.0862  141.3693  162.7014 C.3     1  UNL1        0.2898
     20 O         144.7636  142.6028  163.4916 O.3     1  UNL1       -0.4628
     21 H         142.3932  141.4823  160.4913 H       1  UNL1        0.1565
     22 C         137.9073  139.6084  164.2109 C.3     1  UNL1        0.0970
     23 C         138.4169  139.1968  165.5603 C.3     1  UNL1        0.1264
     24 C         140.2544  140.9473  169.2764 C.ar    1  UNL1        0.1403
     25 C         141.7300  140.8212  169.5143 C.ar    1  UNL1        0.0385
     26 C         142.5931  140.1116  168.5136 C.ar    1  UNL1        0.0237
     27 C         141.9807  139.5281  167.2749 C.ar    1  UNL1        0.0975
     28 N         142.8438  138.8185  166.2742 N.ar    1  UNL1       -0.2374
     29 C         142.2313  138.2350  165.0356 C.ar    1  UNL1        0.1594
     30 C         140.7557  138.3611  164.7975 C.ar    1  UNL1        0.2803
     31 O         140.1432  137.7776  163.5589 O.2     1  UNL1       -0.2653
     32 N         139.8925  139.0707  165.7983 N.ar    1  UNL1       -0.2913
     33 C         140.5051  139.6542  167.0370 C.ar    1  UNL1        0.0832
     34 C         139.6419  140.3638  168.0377 C.ar    1  UNL1        0.0557
     35 C         139.7395  143.0488  170.7147 C.3     1  UNL1        0.2525
     36 O         139.3913  141.6570  170.2771 O.3     1  UNL1       -0.4714
@<TRIPOS>BOND
     1    35    36    1
     2    36    24    1
     3    24    25   ar
     4    25    26   ar
     5    26    27   ar
     6    27    28   ar
     7    28    29   ar
     8    29    30   ar
     9    30    31    2
    10    30    32   ar
    11    32    23    1
    12    23    22    1
    13    22     1    1
    14     1     2    1
    15     2     3    1
    16     3     4    1
    17     4     7    1
    18     7     9    1
    19     9    10    1
    20    10    11   ar
    21    11    12   ar
    22    12    13   ar
    23    13    14   ar
    24    14    15   ar
    25    14    16    1
    26    16    17   am
    27    17    18    2
    28    17    19    1
    29    19    20    1
    30     4     5    1
    31     5     6    1
    32    32    33   ar
    33    33    34   ar
    34    34    24   ar
    35    33    27   ar
    36     6     1    1
    37    15    10   ar
    38    20    13    1
    39     7     8    1
    40    16    21    1
@<TRIPOS>MOLECULE
*****
 36 40 0 0 0
SMALL
GASTEIGER

@<TRIPOS>ATOM
      1 N         142.3806  143.2123  161.0707 N.3     1  UNL1       -0.2710
      2 C         142.3503  144.2911  162.1125 C.3     1  UNL1        0.0735
      3 C         141.0383  144.8597  162.5656 C.3     1  UNL1        0.0331
      4 C         139.7565  144.3494  161.9768 C.3     1  UNL1        0.0570
      5 C         139.7868  143.2707  160.9350 C.3     1  UNL1        0.0331
      6 C         141.0988  142.7021  160.4820 C.3     1  UNL1        0.0735
      7 N         138.4444  144.9180  162.4299 N.3     1  UNL1       -0.2934
      8 H         137.8366  144.9444  161.6112 H       1  UNL1        0.1236
      9 C         137.6707  144.2408  163.5220 C.3     1  UNL1        0.1152
     10 C         138.2871  143.1063  164.2854 C.ar    1  UNL1        0.0765
     11 C         137.8617  141.6954  164.0056 C.ar    1  UNL1        0.0193
     12 C         138.4781  140.5608  164.7690 C.ar    1  UNL1        0.0411
     13 C         139.5200  140.8371  165.8121 C.ar    1  UNL1        0.1708
     14 C         139.9455  142.2481  166.0918 C.ar    1  UNL1        0.1682
     15 N         139.3290  143.3827  165.3285 N.ar    1  UNL1       -0.2304
     16 N         140.9874  142.5245  167.1349 N.am    1  UNL1       -0.2639
     17 C         141.6038  141.3899  167.8983 C.2     1  UNL1        0.2718
     18 O         142.6457  141.6663  168.9414 O.2     1  UNL1       -0.2707
     19 C         141.1784  139.9790  167.6186 C.3     1  UNL1        0.2898
     20 O         140.1365  139.7026  166.5755 O.3     1  UNL1       -0.4628
     21 H         141.2666  143.4506  167.3185 H       1  UNL1        0.1565
     22 C         143.6927  142.6438  160.6177 C.3     1  UNL1        0.0970
     23 C         143.9377  141.1661  160.6986 C.3     1  UNL1        0.1264
     24 C         140.5448  138.3277  161.5242 C.ar    1  UNL1        0.1403
     25 C         140.4600  137.6247  162.8465 C.ar    1  UNL1        0.0385
     26 C         141.5062  137.8678  163.8937 C.ar    1  UNL1        0.0237
     27 C         142.6371  138.8139  163.6185 C.ar    1  UNL1        0.0975
     28 N         143.6833  139.0571  164.6656 N.ar    1  UNL1       -0.2374
     29 C         144.8142  140.0032  164.3904 C.ar    1  UNL1        0.1594
     30 C         144.8991  140.7062  163.0681 C.ar    1  UNL1        0.2803
     31 O         146.0300  141.6523  162.7929 O.2     1  UNL1       -0.2653
     32 N         143.8529  140.4631  162.0209 N.ar    1  UNL1       -0.2913
     33 C         142.7219  139.5169  162.2962 C.ar    1  UNL1        0.0832
     34 C         141.6758  139.2738  161.2490 C.ar    1  UNL1        0.0557
     35 C         139.6089  138.7512  159.1379 C.3     1  UNL1        0.2525
     36 O         139.4987  138.0846  160.4771 O.3     1  UNL1       -0.4714
@<TRIPOS>BOND
     1    35    36    1
     2    36    24    1
     3    24    25   ar
     4    25    26   ar
     5    26    27   ar
     6    27    28   ar
     7    28    29   ar
     8    29    30   ar
     9    30    31    2
    10    30    32   ar
    11    32    23    1
    12    23    22    1
    13    22     1    1
    14     1     2    1
    15     2     3    1
    16     3     4    1
    17     4     7    1
    18     7     9    1
    19     9    10    1
    20    10    11   ar
    21    11    12   ar
    22    12    13   ar
    23    13    14   ar
    24    14    15   ar
    25    14    16    1
    26    16    17   am
    27    17    18    2
    28    17    19    1
    29    19    20    1
    30     4     5    1
    31     5     6    1
    32    32    33   ar
    33    33    34   ar
    34    34    24   ar
    35    33    27   ar
    36     6     1    1
    37    15    10   ar
    38    20    13    1
    39     7     8    1
    40    16    21    1
@<TRIPOS>MOLECULE
*****
 36 40 0 0 0
SMALL
GASTEIGER

@<TRIPOS>ATOM
      1 N         141.6728  138.3505  164.0138 N.3     1  UNL1       -0.2710
      2 C         142.1735  139.3480  165.0159 C.3     1  UNL1        0.0735
      3 C         143.4447  140.1001  164.7546 C.3     1  UNL1        0.0331
      4 C         144.2153  139.8546  163.4914 C.3     1  UNL1        0.0570
      5 C         143.7146  138.8570  162.4893 C.3     1  UNL1        0.0331
      6 C         142.4433  138.1050  162.7505 C.3     1  UNL1        0.0735
      7 N         145.4866  140.6067  163.2301 N.3     1  UNL1       -0.2934
      8 H         145.9429  140.1486  162.4411 H       1  UNL1        0.1236
      9 C         145.4394  142.0718  162.9121 C.3     1  UNL1        0.1152
     10 C         144.4280  142.5952  161.9358 C.ar    1  UNL1        0.0765
     11 C         144.4586  142.1390  160.5072 C.ar    1  UNL1        0.0193
     12 C         143.4472  142.6623  159.5309 C.ar    1  UNL1        0.0411
     13 C         142.4051  143.6419  159.9833 C.ar    1  UNL1        0.1708
     14 C         142.3745  144.0981  161.4119 C.ar    1  UNL1        0.1682
     15 N         143.3860  143.5747  162.3882 N.ar    1  UNL1       -0.2304
     16 N         141.3325  145.0777  161.8643 N.am    1  UNL1       -0.2639
     17 C         140.3211  145.6010  160.8879 C.2     1  UNL1        0.2718
     18 O         139.2790  146.5806  161.3403 O.2     1  UNL1       -0.2707
     19 C         140.3517  145.1448  159.4594 C.3     1  UNL1        0.2898
     20 O         141.3937  144.1652  159.0070 O.3     1  UNL1       -0.4628
     21 H         141.3124  145.3771  162.8019 H       1  UNL1        0.1565
     22 C         140.4014  137.5984  164.2750 C.3     1  UNL1        0.0970
     23 C         139.2639  137.6873  163.3014 C.3     1  UNL1        0.1264
     24 C         139.5978  138.9314  158.9897 C.ar    1  UNL1        0.1403
     25 C         139.0863  140.2726  158.5543 C.ar    1  UNL1        0.0385
     26 C         138.4635  141.1991  159.5562 C.ar    1  UNL1        0.0237
     27 C         138.3521  140.7844  160.9934 C.ar    1  UNL1        0.0975
     28 N         137.7293  141.7109  161.9953 N.ar    1  UNL1       -0.2374
     29 C         137.6180  141.2962  163.4325 C.ar    1  UNL1        0.1594
     30 C         138.1295  139.9550  163.8679 C.ar    1  UNL1        0.2803
     31 O         138.0182  139.5403  165.3051 O.2     1  UNL1       -0.2653
     32 N         138.7523  139.0285  162.8660 N.ar    1  UNL1       -0.2913
     33 C         138.8636  139.4432  161.4288 C.ar    1  UNL1        0.0832
     34 C         139.4865  138.5167  160.4269 C.ar    1  UNL1        0.0557
     35 C         139.6022  137.8421  156.6310 C.3     1  UNL1        0.2525
     36 O         140.2206  138.0049  157.9878 O.3     1  UNL1       -0.4714
@<TRIPOS>BOND
     1    35    36    1
     2    36    24    1
     3    24    25   ar
     4    25    26   ar
     5    26    27   ar
     6    27    28   ar
     7    28    29   ar
     8    29    30   ar
     9    30    31    2
    10    30    32   ar
    11    32    23    1
    12    23    22    1
    13    22     1    1
    14     1     2    1
    15     2     3    1
    16     3     4    1
    17     4     7    1
    18     7     9    1
    19     9    10    1
    20    10    11   ar
    21    11    12   ar
    22    12    13   ar
    23    13    14   ar
    24    14    15   ar
    25    14    16    1
    26    16    17   am
    27    17    18    2
    28    17    19    1
    29    19    20    1
    30     4     5    1
    31     5     6    1
    32    32    33   ar
    33    33    34   ar
    34    34    24   ar
    35    33    27   ar
    36     6     1    1
    37    15    10   ar
    38    20    13    1
    39     7     8    1
    40    16    21    1
