@<TRIPOS>MOLECULE
*****
 33 35 0 0 0
SMALL
GASTEIGER

@<TRIPOS>ATOM
      1 C         141.8520  140.9503  167.2949 C.ar    1  UNL1        0.0764
      2 C         140.6664  140.4422  166.5292 C.ar    1  UNL1        0.0522
      3 C         139.4985  139.8502  167.2611 C.ar    1  UNL1        0.1515
      4 N         139.5162  139.7662  168.7586 N.ar    1  UNL1       -0.1329
      5 N         140.7018  140.2743  169.5243 N.ar    1  UNL1       -0.1409
      6 C         141.8697  140.8663  168.7925 C.ar    1  UNL1        0.1691
      7 C         143.0552  141.3743  169.5582 C.2     1  UNL1        0.2635
      8 N         143.6235  140.5640  170.6853 N.am    1  UNL1       -0.3240
      9 O         143.6726  142.6929  169.1968 O.2     1  UNL1       -0.2686
     10 H         143.2183  139.6986  170.9225 H       1  UNL1        0.1453
     11 H         144.4016  140.8974  171.1878 H       1  UNL1        0.1453
     12 N         143.0199  141.5423  166.5631 N.pl3   1  UNL1       -0.2965
     13 H         143.9212  141.1667  166.6887 H       1  UNL1        0.1537
     14 C         141.2203  144.3403  164.3991 C.ar    1  UNL1        0.0600
     15 C         142.4036  145.0351  163.7936 C.ar    1  UNL1        0.0148
     16 C         143.7924  144.5657  164.1111 C.ar    1  UNL1        0.0041
     17 C         143.9979  143.4014  165.0343 C.ar    1  UNL1        0.0344
     18 C         142.8145  142.7066  165.6399 C.ar    1  UNL1        0.1318
     19 N         141.4257  143.1760  165.3223 N.ar    1  UNL1       -0.2349
     20 C         139.4920  145.2622  162.6923 C.3     1  UNL1        0.0063
     21 C         139.8314  144.8097  164.0816 C.3     1  UNL1        0.0403
     22 C         138.7821  144.8266  165.1532 C.3     1  UNL1        0.0063
     23 N         138.3130  139.3421  166.4954 N.pl3   1  UNL1       -0.3170
     24 H         137.4618  139.1740  166.9606 H       1  UNL1        0.1482
     25 C         138.4243  139.0904  165.0209 C.3     1  UNL1        0.0845
     26 C         138.9577  137.7802  164.5220 C.3     1  UNL1        0.0209
     27 C         139.0690  137.5284  163.0474 C.3     1  UNL1        0.0018
     28 C         138.6469  138.5867  162.0718 C.3     1  UNL1        0.0015
     29 C         138.1134  139.8969  162.5708 C.3     1  UNL1        0.0172
     30 C         138.0021  140.1487  164.0453 C.3     1  UNL1        0.0689
     31 N         137.4687  141.4588  164.5442 N.3     1  UNL1       -0.3209
     32 H         137.2327  142.0543  163.7504 H       1  UNL1        0.1189
     33 H         138.1773  141.9190  165.1157 H       1  UNL1        0.1189
@<TRIPOS>BOND
     1    20    21    1
     2    21    22    1
     3    21    14    1
     4    14    15   ar
     5    15    16   ar
     6    16    17   ar
     7    17    18   ar
     8    18    12    1
     9    12     1    1
    10     1     2   ar
    11     2     3   ar
    12     3    23    1
    13    25    23    1
    14    25    26    1
    15    26    27    1
    16    27    28    1
    17    28    29    1
    18    29    30    1
    19    30    31    1
    20     3     4   ar
    21     4     5   ar
    22     5     6   ar
    23     6     7    1
    24     7     8   am
    25     7     9    2
    26    18    19   ar
    27    19    14   ar
    28     6     1   ar
    29    30    25    1
    30    12    13    1
    31    23    24    1
    32    31    32    1
    33    31    33    1
    34     8    10    1
    35     8    11    1
@<TRIPOS>MOLECULE
*****
 33 35 0 0 0
SMALL
GASTEIGER

@<TRIPOS>ATOM
      1 C         140.8382  140.4674  168.6652 C.ar    1  UNL1        0.0764
      2 C         140.0168  139.9548  167.5195 C.ar    1  UNL1        0.0522
      3 C         138.6198  139.4635  167.7590 C.ar    1  UNL1        0.1515
      4 N         138.0444  139.4849  169.1440 N.ar    1  UNL1       -0.1329
      5 N         138.8658  139.9976  170.2896 N.ar    1  UNL1       -0.1409
      6 C         140.2627  140.4888  170.0502 C.ar    1  UNL1        0.1691
      7 C         141.0841  141.0014  171.1959 C.2     1  UNL1        0.2635
      8 N         142.3787  140.3314  171.5495 N.am    1  UNL1       -0.3240
      9 O         140.6108  142.1841  171.9880 O.2     1  UNL1       -0.2686
     10 H         142.6893  139.5552  171.0296 H       1  UNL1        0.1453
     11 H         142.9178  140.6679  172.3014 H       1  UNL1        0.1453
     12 N         142.2351  140.9586  168.4258 N.pl3   1  UNL1       -0.2965
     13 H         142.7192  141.4330  169.1398 H       1  UNL1        0.1537
     14 C         143.9251  141.6625  164.9046 C.ar    1  UNL1        0.0600
     15 C         144.2130  140.2644  164.4438 C.ar    1  UNL1        0.0148
     16 C         143.8415  139.0977  165.3103 C.ar    1  UNL1        0.0041
     17 C         143.1823  139.3291  166.6376 C.ar    1  UNL1        0.0344
     18 C         142.8944  140.7272  167.0984 C.ar    1  UNL1        0.1318
     19 N         143.2659  141.8939  166.2319 N.ar    1  UNL1       -0.2349
     20 C         144.0692  144.2289  164.5271 C.3     1  UNL1        0.0063
     21 C         144.2966  142.8292  164.0382 C.3     1  UNL1        0.0403
     22 C         144.8954  142.5962  162.6828 C.3     1  UNL1        0.0063
     23 N         137.7984  138.9509  166.6133 N.pl3   1  UNL1       -0.3170
     24 H         136.8561  138.7035  166.7551 H       1  UNL1        0.1482
     25 C         138.4127  138.8151  165.2517 C.3     1  UNL1        0.0845
     26 C         139.1733  137.5732  164.8925 C.3     1  UNL1        0.0209
     27 C         139.7876  137.4374  163.5307 C.3     1  UNL1        0.0018
     28 C         139.6413  138.5435  162.5283 C.3     1  UNL1        0.0015
     29 C         138.8807  139.7855  162.8875 C.3     1  UNL1        0.0172
     30 C         138.2664  139.9213  164.2492 C.3     1  UNL1        0.0689
     31 N         137.5059  141.1633  164.6084 N.3     1  UNL1       -0.3209
     32 H         137.5067  141.8039  163.8147 H       1  UNL1        0.1189
     33 H         137.9488  141.6135  165.4093 H       1  UNL1        0.1189
@<TRIPOS>BOND
     1    20    21    1
     2    21    22    1
     3    21    14    1
     4    14    15   ar
     5    15    16   ar
     6    16    17   ar
     7    17    18   ar
     8    18    12    1
     9    12     1    1
    10     1     2   ar
    11     2     3   ar
    12     3    23    1
    13    25    23    1
    14    25    26    1
    15    26    27    1
    16    27    28    1
    17    28    29    1
    18    29    30    1
    19    30    31    1
    20     3     4   ar
    21     4     5   ar
    22     5     6   ar
    23     6     7    1
    24     7     8   am
    25     7     9    2
    26    18    19   ar
    27    19    14   ar
    28     6     1   ar
    29    30    25    1
    30    12    13    1
    31    23    24    1
    32    31    32    1
    33    31    33    1
    34     8    10    1
    35     8    11    1
@<TRIPOS>MOLECULE
*****
 33 35 0 0 0
SMALL
GASTEIGER

@<TRIPOS>ATOM
      1 C         140.3824  139.9068  167.0121 C.ar    1  UNL1        0.0764
      2 C         140.1648  139.1440  165.7390 C.ar    1  UNL1        0.0522
      3 C         138.9210  138.3253  165.5584 C.ar    1  UNL1        0.1515
      4 N         137.8948  138.2693  166.6510 N.ar    1  UNL1       -0.1329
      5 N         138.1124  139.0320  167.9242 N.ar    1  UNL1       -0.1409
      6 C         139.3561  139.8507  168.1047 C.ar    1  UNL1        0.1691
      7 C         139.5737  140.6135  169.3779 C.2     1  UNL1        0.2635
      8 N         139.3616  139.9400  170.7013 N.am    1  UNL1       -0.3240
      9 O         140.0034  142.0498  169.3276 O.2     1  UNL1       -0.2686
     10 H         139.0796  138.9973  170.7342 H       1  UNL1        0.1453
     11 H         139.5044  140.4406  171.5369 H       1  UNL1        0.1453
     12 N         141.6262  140.7255  167.1927 N.pl3   1  UNL1       -0.2965
     13 H         142.2319  140.5408  167.9465 H       1  UNL1        0.1537
     14 C         141.1706  143.7968  164.7210 C.ar    1  UNL1        0.0600
     15 C         142.5887  144.0258  164.2891 C.ar    1  UNL1        0.0148
     16 C         143.6859  143.1547  164.8250 C.ar    1  UNL1        0.0041
     17 C         143.3651  142.0546  165.7929 C.ar    1  UNL1        0.0344
     18 C         141.9471  141.8256  166.2248 C.ar    1  UNL1        0.1318
     19 N         140.8498  142.6967  165.6889 N.ar    1  UNL1       -0.2349
     20 C         140.2411  145.3578  162.8637 C.3     1  UNL1        0.0063
     21 C         140.0734  144.6679  164.1851 C.3     1  UNL1        0.0403
     22 C         138.8084  144.8492  164.9704 C.3     1  UNL1        0.0063
     23 N         138.7034  137.5625  164.2853 N.pl3   1  UNL1       -0.3170
     24 H         138.3540  136.6426  164.3162 H       1  UNL1        0.1482
     25 C         139.0181  138.2014  162.9652 C.3     1  UNL1        0.0845
     26 C         138.0534  139.1735  162.3535 C.3     1  UNL1        0.0209
     27 C         138.3682  139.8124  161.0333 C.3     1  UNL1        0.0018
     28 C         139.6476  139.4790  160.3248 C.3     1  UNL1        0.0015
     29 C         140.6124  138.5068  160.9366 C.3     1  UNL1        0.0172
     30 C         140.2976  137.8680  162.2567 C.3     1  UNL1        0.0689
     31 N         141.2623  136.8959  162.8684 N.3     1  UNL1       -0.3209
     32 H         142.0711  136.7886  162.2562 H       1  UNL1        0.1189
     33 H         140.8044  135.9924  162.9883 H       1  UNL1        0.1189
@<TRIPOS>BOND
     1    20    21    1
     2    21    22    1
     3    21    14    1
     4    14    15   ar
     5    15    16   ar
     6    16    17   ar
     7    17    18   ar
     8    18    12    1
     9    12     1    1
    10     1     2   ar
    11     2     3   ar
    12     3    23    1
    13    25    23    1
    14    25    26    1
    15    26    27    1
    16    27    28    1
    17    28    29    1
    18    29    30    1
    19    30    31    1
    20     3     4   ar
    21     4     5   ar
    22     5     6   ar
    23     6     7    1
    24     7     8   am
    25     7     9    2
    26    18    19   ar
    27    19    14   ar
    28     6     1   ar
    29    30    25    1
    30    12    13    1
    31    23    24    1
    32    31    32    1
    33    31    33    1
    34     8    10    1
    35     8    11    1
@<TRIPOS>MOLECULE
*****
 33 35 0 0 0
SMALL
GASTEIGER

@<TRIPOS>ATOM
      1 C         139.1541  141.4534  165.1488 C.ar    1  UNL1        0.0764
      2 C         139.7352  141.2915  166.5222 C.ar    1  UNL1        0.0522
      3 C         139.3757  140.0949  167.3524 C.ar    1  UNL1        0.1515
      4 N         138.4353  139.0603  166.8091 N.ar    1  UNL1       -0.1329
      5 N         137.8542  139.2223  165.4358 N.ar    1  UNL1       -0.1409
      6 C         138.2136  140.4187  164.6056 C.ar    1  UNL1        0.1691
      7 C         137.6325  140.5807  163.2323 C.2     1  UNL1        0.2635
      8 N         137.6283  139.4231  162.2784 N.am    1  UNL1       -0.3240
      9 O         137.0555  141.9003  162.8128 O.2     1  UNL1       -0.2686
     10 H         138.0070  138.5570  162.5537 H       1  UNL1        0.1453
     11 H         137.2469  139.5294  161.3770 H       1  UNL1        0.1453
     12 N         139.5135  142.6499  164.3187 N.pl3   1  UNL1       -0.2965
     13 H         138.8046  143.1868  163.8962 H       1  UNL1        0.1537
     14 C         143.4388  142.3392  163.8234 C.ar    1  UNL1        0.0600
     15 C         143.8318  143.7854  163.7594 C.ar    1  UNL1        0.0148
     16 C         142.7853  144.8531  163.8818 C.ar    1  UNL1        0.0041
     17 C         141.3459  144.4746  164.0682 C.ar    1  UNL1        0.0344
     18 C         140.9530  143.0284  164.1323 C.ar    1  UNL1        0.1318
     19 N         141.9994  141.9607  164.0098 N.ar    1  UNL1       -0.2349
     20 C         144.0820  139.8274  163.6585 C.3     1  UNL1        0.0063
     21 C         144.4853  141.2715  163.7010 C.3     1  UNL1        0.0403
     22 C         145.9351  141.6479  163.6211 C.3     1  UNL1        0.0063
     23 N         139.9568  139.9330  168.7257 N.pl3   1  UNL1       -0.3170
     24 H         139.6885  139.1699  169.2869 H       1  UNL1        0.1482
     25 C         140.9467  140.9336  169.2440 C.3     1  UNL1        0.0845
     26 C         140.4813  142.2896  169.6853 C.3     1  UNL1        0.0209
     27 C         141.4713  143.2904  170.2036 C.3     1  UNL1        0.0018
     28 C         142.9266  142.9351  170.2807 C.3     1  UNL1        0.0015
     29 C         143.3919  141.5791  169.8393 C.3     1  UNL1        0.0172
     30 C         142.4020  140.5784  169.3210 C.3     1  UNL1        0.0689
     31 N         142.8674  139.2224  168.8798 N.3     1  UNL1       -0.3209
     32 H         143.8780  139.1540  169.0001 H       1  UNL1        0.1189
     33 H         142.6320  139.0854  167.8968 H       1  UNL1        0.1189
@<TRIPOS>BOND
     1    20    21    1
     2    21    22    1
     3    21    14    1
     4    14    15   ar
     5    15    16   ar
     6    16    17   ar
     7    17    18   ar
     8    18    12    1
     9    12     1    1
    10     1     2   ar
    11     2     3   ar
    12     3    23    1
    13    25    23    1
    14    25    26    1
    15    26    27    1
    16    27    28    1
    17    28    29    1
    18    29    30    1
    19    30    31    1
    20     3     4   ar
    21     4     5   ar
    22     5     6   ar
    23     6     7    1
    24     7     8   am
    25     7     9    2
    26    18    19   ar
    27    19    14   ar
    28     6     1   ar
    29    30    25    1
    30    12    13    1
    31    23    24    1
    32    31    32    1
    33    31    33    1
    34     8    10    1
    35     8    11    1
@<TRIPOS>MOLECULE
*****
 33 35 0 0 0
SMALL
GASTEIGER

@<TRIPOS>ATOM
      1 C         139.5390  143.8455  162.7004 C.ar    1  UNL1        0.0764
      2 C         138.8623  142.5798  163.1363 C.ar    1  UNL1        0.0522
      3 C         138.1349  141.7344  162.1331 C.ar    1  UNL1        0.1515
      4 N         138.0843  142.1547  160.6941 N.ar    1  UNL1       -0.1329
      5 N         138.7610  143.4204  160.2583 N.ar    1  UNL1       -0.1409
      6 C         139.4884  144.2658  161.2613 C.ar    1  UNL1        0.1691
      7 C         140.1651  145.5315  160.8255 C.2     1  UNL1        0.2635
      8 N         141.5485  145.4818  160.2478 N.am    1  UNL1       -0.3240
      9 O         139.4584  146.8470  160.9673 O.2     1  UNL1       -0.2686
     10 H         142.0123  144.6184  160.1547 H       1  UNL1        0.1453
     11 H         141.9926  146.3125  159.9617 H       1  UNL1        0.1453
     12 N         140.2664  144.6909  163.7035 N.pl3   1  UNL1       -0.2965
     13 H         139.9088  145.5728  163.9556 H       1  UNL1        0.1537
     14 C         142.7642  142.6326  166.0001 C.ar    1  UNL1        0.0600
     15 C         144.0830  143.1959  165.5605 C.ar    1  UNL1        0.0148
     16 C         144.1296  144.2576  164.5019 C.ar    1  UNL1        0.0041
     17 C         142.8574  144.7560  163.8829 C.ar    1  UNL1        0.0344
     18 C         141.5386  144.1926  164.3225 C.ar    1  UNL1        0.1318
     19 N         141.4920  143.1309  165.3811 N.ar    1  UNL1       -0.2349
     20 C         142.4058  140.1521  166.6848 C.3     1  UNL1        0.0063
     21 C         142.7175  141.5709  167.0587 C.3     1  UNL1        0.0403
     22 C         142.9826  141.9279  168.4912 C.3     1  UNL1        0.0063
     23 N         137.4582  140.4686  162.5690 N.pl3   1  UNL1       -0.3170
     24 H         136.5201  140.3016  162.3214 H       1  UNL1        0.1482
     25 C         138.2108  139.4575  163.3821 C.3     1  UNL1        0.0845
     26 C         138.2000  139.5413  164.8797 C.3     1  UNL1        0.0209
     27 C         138.9526  138.5301  165.6929 C.3     1  UNL1        0.0018
     28 C         139.7159  137.4352  165.0085 C.3     1  UNL1        0.0015
     29 C         139.7266  137.3514  163.5108 C.3     1  UNL1        0.0172
     30 C         138.9740  138.3625  162.6977 C.3     1  UNL1        0.0689
     31 N         138.9848  138.2787  161.2001 N.3     1  UNL1       -0.3209
     32 H         139.5483  137.4801  160.9083 H       1  UNL1        0.1189
     33 H         139.3830  139.1349  160.8145 H       1  UNL1        0.1189
@<TRIPOS>BOND
     1    20    21    1
     2    21    22    1
     3    21    14    1
     4    14    15   ar
     5    15    16   ar
     6    16    17   ar
     7    17    18   ar
     8    18    12    1
     9    12     1    1
    10     1     2   ar
    11     2     3   ar
    12     3    23    1
    13    25    23    1
    14    25    26    1
    15    26    27    1
    16    27    28    1
    17    28    29    1
    18    29    30    1
    19    30    31    1
    20     3     4   ar
    21     4     5   ar
    22     5     6   ar
    23     6     7    1
    24     7     8   am
    25     7     9    2
    26    18    19   ar
    27    19    14   ar
    28     6     1   ar
    29    30    25    1
    30    12    13    1
    31    23    24    1
    32    31    32    1
    33    31    33    1
    34     8    10    1
    35     8    11    1
@<TRIPOS>MOLECULE
*****
 33 35 0 0 0
SMALL
GASTEIGER

@<TRIPOS>ATOM
      1 C         138.1095  140.1585  163.7748 C.ar    1  UNL1        0.0764
      2 C         138.1149  140.2228  165.2734 C.ar    1  UNL1        0.0522
      3 C         138.4802  139.0085  166.0749 C.ar    1  UNL1        0.1515
      4 N         138.8400  137.7301  165.3777 N.ar    1  UNL1       -0.1329
      5 N         138.8346  137.6658  163.8791 N.ar    1  UNL1       -0.1409
      6 C         138.4694  138.8800  163.0776 C.ar    1  UNL1        0.1691
      7 C         138.4640  138.8157  161.5790 C.2     1  UNL1        0.2635
      8 N         139.6055  138.1690  160.8520 N.am    1  UNL1       -0.3240
      9 O         137.3170  139.3982  160.8075 O.2     1  UNL1       -0.2686
     10 H         140.3583  137.7867  161.3583 H       1  UNL1        0.1453
     11 H         139.6019  138.1269  159.8684 H       1  UNL1        0.1453
     12 N         137.7443  141.3727  162.9734 N.pl3   1  UNL1       -0.2965
     13 H         136.9571  141.3539  162.3824 H       1  UNL1        0.1537
     14 C         140.8290  143.7740  163.6576 C.ar    1  UNL1        0.0600
     15 C         140.2467  145.1009  163.2701 C.ar    1  UNL1        0.0148
     16 C         138.8303  145.1851  162.7836 C.ar    1  UNL1        0.0041
     17 C         137.9962  143.9424  162.6847 C.ar    1  UNL1        0.0344
     18 C         138.5784  142.6155  163.0723 C.ar    1  UNL1        0.1318
     19 N         139.9948  142.5313  163.5587 N.ar    1  UNL1       -0.2349
     20 C         143.2041  144.8077  163.8590 C.3     1  UNL1        0.0063
     21 C         142.2454  143.6898  164.1441 C.3     1  UNL1        0.0403
     22 C         142.7032  142.4877  164.9157 C.3     1  UNL1        0.0063
     23 N         138.4856  139.0728  167.5735 N.pl3   1  UNL1       -0.3170
     24 H         137.8578  138.5195  168.0922 H       1  UNL1        0.1482
     25 C         139.4474  139.9800  168.2818 C.3     1  UNL1        0.0845
     26 C         140.6671  140.4836  167.5687 C.3     1  UNL1        0.0209
     27 C         141.6291  141.3908  168.2770 C.3     1  UNL1        0.0018
     28 C         141.3712  141.7945  169.6985 C.3     1  UNL1        0.0015
     29 C         140.1514  141.2908  170.4116 C.3     1  UNL1        0.0172
     30 C         139.1895  140.3836  169.7033 C.3     1  UNL1        0.0689
     31 N         137.9698  139.8800  170.4164 N.3     1  UNL1       -0.3209
     32 H         137.9540  140.2510  171.3664 H       1  UNL1        0.1189
     33 H         137.9921  138.8608  170.4498 H       1  UNL1        0.1189
@<TRIPOS>BOND
     1    20    21    1
     2    21    22    1
     3    21    14    1
     4    14    15   ar
     5    15    16   ar
     6    16    17   ar
     7    17    18   ar
     8    18    12    1
     9    12     1    1
    10     1     2   ar
    11     2     3   ar
    12     3    23    1
    13    25    23    1
    14    25    26    1
    15    26    27    1
    16    27    28    1
    17    28    29    1
    18    29    30    1
    19    30    31    1
    20     3     4   ar
    21     4     5   ar
    22     5     6   ar
    23     6     7    1
    24     7     8   am
    25     7     9    2
    26    18    19   ar
    27    19    14   ar
    28     6     1   ar
    29    30    25    1
    30    12    13    1
    31    23    24    1
    32    31    32    1
    33    31    33    1
    34     8    10    1
    35     8    11    1
@<TRIPOS>MOLECULE
*****
 33 35 0 0 0
SMALL
GASTEIGER

@<TRIPOS>ATOM
      1 C         139.9598  143.4048  161.4353 C.ar    1  UNL1        0.0764
      2 C         139.3722  142.0279  161.5295 C.ar    1  UNL1        0.0522
      3 C         138.0497  141.8215  162.2067 C.ar    1  UNL1        0.1515
      4 N         137.3149  142.9920  162.7897 N.ar    1  UNL1       -0.1329
      5 N         137.9025  144.3689  162.6955 N.ar    1  UNL1       -0.1409
      6 C         139.2249  144.5753  162.0184 C.ar    1  UNL1        0.1691
      7 C         139.8125  145.9523  161.9242 C.2     1  UNL1        0.2635
      8 N         140.9391  146.3505  162.8309 N.am    1  UNL1       -0.3240
      9 O         139.2734  146.9309  160.9233 O.2     1  UNL1       -0.2686
     10 H         141.2929  145.7082  163.4878 H       1  UNL1        0.1453
     11 H         141.3248  147.2542  162.7691 H       1  UNL1        0.1453
     12 N         141.2822  143.6112  160.7581 N.pl3   1  UNL1       -0.2965
     13 H         141.3171  144.0006  159.8546 H       1  UNL1        0.1537
     14 C         143.9057  142.9128  163.6529 C.ar    1  UNL1        0.0600
     15 C         145.0900  142.4509  162.8567 C.ar    1  UNL1        0.0148
     16 C         145.0051  142.3757  161.3610 C.ar    1  UNL1        0.0041
     17 C         143.7359  142.7625  160.6615 C.ar    1  UNL1        0.0344
     18 C         142.5515  143.2244  161.4577 C.ar    1  UNL1        0.1318
     19 N         142.6365  143.2996  162.9534 N.ar    1  UNL1       -0.2349
     20 C         144.9438  143.9466  165.7985 C.3     1  UNL1        0.0063
     21 C         143.9906  142.9880  165.1486 C.3     1  UNL1        0.0403
     22 C         143.1223  142.1045  165.9945 C.3     1  UNL1        0.0063
     23 N         137.4622  140.4446  162.3008 N.pl3   1  UNL1       -0.3170
     24 H         136.7205  140.1843  161.7080 H       1  UNL1        0.1482
     25 C         138.0046  139.4643  163.2981 C.3     1  UNL1        0.0845
     26 C         137.9820  139.7930  164.7615 C.3     1  UNL1        0.0209
     27 C         138.5244  138.8127  165.7589 C.3     1  UNL1        0.0018
     28 C         139.0894  137.5036  165.2929 C.3     1  UNL1        0.0015
     29 C         139.1120  137.1749  163.8294 C.3     1  UNL1        0.0172
     30 C         138.5696  138.1553  162.8321 C.3     1  UNL1        0.0689
     31 N         138.5922  137.8266  161.3688 N.3     1  UNL1       -0.3209
     32 H         139.0073  136.9046  161.2338 H       1  UNL1        0.1189
     33 H         139.1457  138.5246  160.8720 H       1  UNL1        0.1189
@<TRIPOS>BOND
     1    20    21    1
     2    21    22    1
     3    21    14    1
     4    14    15   ar
     5    15    16   ar
     6    16    17   ar
     7    17    18   ar
     8    18    12    1
     9    12     1    1
    10     1     2   ar
    11     2     3   ar
    12     3    23    1
    13    25    23    1
    14    25    26    1
    15    26    27    1
    16    27    28    1
    17    28    29    1
    18    29    30    1
    19    30    31    1
    20     3     4   ar
    21     4     5   ar
    22     5     6   ar
    23     6     7    1
    24     7     8   am
    25     7     9    2
    26    18    19   ar
    27    19    14   ar
    28     6     1   ar
    29    30    25    1
    30    12    13    1
    31    23    24    1
    32    31    32    1
    33    31    33    1
    34     8    10    1
    35     8    11    1
@<TRIPOS>MOLECULE
*****
 33 35 0 0 0
SMALL
GASTEIGER

@<TRIPOS>ATOM
      1 C         140.1108  139.8276  165.2290 C.ar    1  UNL1        0.0764
      2 C         140.4836  140.0419  166.6660 C.ar    1  UNL1        0.0522
      3 C         139.5349  139.6374  167.7553 C.ar    1  UNL1        0.1515
      4 N         138.2136  139.0186  167.4075 N.ar    1  UNL1       -0.1329
      5 N         137.8408  138.8043  165.9705 N.ar    1  UNL1       -0.1409
      6 C         138.7894  139.2087  164.8812 C.ar    1  UNL1        0.1691
      7 C         138.4166  138.9944  163.4442 C.2     1  UNL1        0.2635
      8 N         137.9159  140.1432  162.6199 N.am    1  UNL1       -0.3240
      9 O         138.5445  137.6312  162.8315 O.2     1  UNL1       -0.2686
     10 H         137.8320  141.0379  163.0220 H       1  UNL1        0.1453
     11 H         137.6712  140.0025  161.6767 H       1  UNL1        0.1453
     12 N         141.0594  140.2320  164.1397 N.pl3   1  UNL1       -0.2965
     13 H         141.5132  139.5438  163.6015 H       1  UNL1        0.1537
     14 C         140.4593  144.0211  163.1233 C.ar    1  UNL1        0.0600
     15 C         141.8309  144.5912  163.3318 C.ar    1  UNL1        0.0148
     16 C         142.9454  143.7082  163.8097 C.ar    1  UNL1        0.0041
     17 C         142.6883  142.2552  164.0790 C.ar    1  UNL1        0.0344
     18 C         141.3166  141.6851  163.8704 C.ar    1  UNL1        0.1318
     19 N         140.2021  142.5680  163.3926 N.ar    1  UNL1       -0.2349
     20 C         137.9194  144.5315  162.9274 C.3     1  UNL1        0.0063
     21 C         139.3448  144.9040  162.6454 C.3     1  UNL1        0.0403
     22 C         139.6556  146.1594  161.8857 C.3     1  UNL1        0.0063
     23 N         139.9077  139.8517  169.1924 N.pl3   1  UNL1       -0.3170
     24 H         139.4735  139.3201  169.8981 H       1  UNL1        0.1482
     25 C         140.9421  140.8760  169.5541 C.3     1  UNL1        0.0845
     26 C         140.5474  142.3132  169.7230 C.3     1  UNL1        0.0209
     27 C         141.5818  143.3376  170.0848 C.3     1  UNL1        0.0018
     28 C         143.0109  142.9246  170.2776 C.3     1  UNL1        0.0015
     29 C         143.4056  141.4873  170.1087 C.3     1  UNL1        0.0172
     30 C         142.3712  140.4631  169.7469 C.3     1  UNL1        0.0689
     31 N         142.7659  139.0258  169.5780 N.3     1  UNL1       -0.3209
     32 H         143.7672  138.9264  169.7450 H       1  UNL1        0.1189
     33 H         142.5477  138.7226  168.6289 H       1  UNL1        0.1189
@<TRIPOS>BOND
     1    20    21    1
     2    21    22    1
     3    21    14    1
     4    14    15   ar
     5    15    16   ar
     6    16    17   ar
     7    17    18   ar
     8    18    12    1
     9    12     1    1
    10     1     2   ar
    11     2     3   ar
    12     3    23    1
    13    25    23    1
    14    25    26    1
    15    26    27    1
    16    27    28    1
    17    28    29    1
    18    29    30    1
    19    30    31    1
    20     3     4   ar
    21     4     5   ar
    22     5     6   ar
    23     6     7    1
    24     7     8   am
    25     7     9    2
    26    18    19   ar
    27    19    14   ar
    28     6     1   ar
    29    30    25    1
    30    12    13    1
    31    23    24    1
    32    31    32    1
    33    31    33    1
    34     8    10    1
    35     8    11    1
@<TRIPOS>MOLECULE
*****
 33 35 0 0 0
SMALL
GASTEIGER

@<TRIPOS>ATOM
      1 C         140.8457  139.1552  164.7855 C.ar    1  UNL1        0.0764
      2 C         141.0070  139.3795  166.2599 C.ar    1  UNL1        0.0522
      3 C         139.7963  139.5385  167.1312 C.ar    1  UNL1        0.1515
      4 N         138.4245  139.4733  166.5281 N.ar    1  UNL1       -0.1329
      5 N         138.2632  139.2490  165.0538 N.ar    1  UNL1       -0.1409
      6 C         139.4738  139.0899  164.1825 C.ar    1  UNL1        0.1691
      7 C         139.3125  138.8656  162.7081 C.2     1  UNL1        0.2635
      8 N         138.4622  137.7347  162.2102 N.am    1  UNL1       -0.3240
      9 O         140.0016  139.7722  161.7318 O.2     1  UNL1       -0.2686
     10 H         138.0099  137.1397  162.8510 H       1  UNL1        0.1453
     11 H         138.3563  137.5875  161.2425 H       1  UNL1        0.1453
     12 N         142.0563  138.9962  163.9142 N.pl3   1  UNL1       -0.2965
     13 H         142.1860  138.1678  163.3982 H       1  UNL1        0.1537
     14 C         143.6450  142.5981  163.4122 C.ar    1  UNL1        0.0600
     15 C         145.0952  142.3052  163.6591 C.ar    1  UNL1        0.0148
     16 C         145.5325  140.9093  163.9910 C.ar    1  UNL1        0.0041
     17 C         144.5195  139.8063  164.0760 C.ar    1  UNL1        0.0344
     18 C         143.0693  140.0992  163.8292 C.ar    1  UNL1        0.1318
     19 N         142.6320  141.4951  163.4973 N.ar    1  UNL1       -0.2349
     20 C         143.6021  145.1351  163.9704 C.3     1  UNL1        0.0063
     21 C         143.2077  143.9940  163.0803 C.3     1  UNL1        0.0403
     22 C         142.3760  144.2489  161.8583 C.3     1  UNL1        0.0063
     23 N         139.9576  139.7629  168.6055 N.pl3   1  UNL1       -0.3170
     24 H         139.4510  139.2123  169.2455 H       1  UNL1        0.1482
     25 C         140.8906  140.8259  169.1047 C.3     1  UNL1        0.0845
     26 C         140.4062  142.2372  169.2582 C.3     1  UNL1        0.0209
     27 C         141.3393  143.3003  169.7575 C.3     1  UNL1        0.0018
     28 C         142.7567  142.9521  170.1033 C.3     1  UNL1        0.0015
     29 C         143.2411  141.5408  169.9498 C.3     1  UNL1        0.0172
     30 C         142.3081  140.4777  169.4505 C.3     1  UNL1        0.0689
     31 N         142.7925  139.0664  169.2971 N.3     1  UNL1       -0.3209
     32 H         143.7723  139.0112  169.5751 H       1  UNL1        0.1189
     33 H         142.6987  138.7788  168.3230 H       1  UNL1        0.1189
@<TRIPOS>BOND
     1    20    21    1
     2    21    22    1
     3    21    14    1
     4    14    15   ar
     5    15    16   ar
     6    16    17   ar
     7    17    18   ar
     8    18    12    1
     9    12     1    1
    10     1     2   ar
    11     2     3   ar
    12     3    23    1
    13    25    23    1
    14    25    26    1
    15    26    27    1
    16    27    28    1
    17    28    29    1
    18    29    30    1
    19    30    31    1
    20     3     4   ar
    21     4     5   ar
    22     5     6   ar
    23     6     7    1
    24     7     8   am
    25     7     9    2
    26    18    19   ar
    27    19    14   ar
    28     6     1   ar
    29    30    25    1
    30    12    13    1
    31    23    24    1
    32    31    32    1
    33    31    33    1
    34     8    10    1
    35     8    11    1
