@<TRIPOS>MOLECULE
*****
 41 46 0 0 0
SMALL
GASTEIGER

@<TRIPOS>ATOM
      1 C         144.7659  142.0441  162.3028 C.2     1  UNL1        0.2301
      2 O         144.8415  143.5132  162.0095 O.2     1  UNL1       -0.2745
      3 N         144.2131  141.1016  161.2751 N.am    1  UNL1       -0.2793
      4 C         143.7361  141.6282  159.9541 C.3     1  UNL1        0.0935
      5 C         143.1834  140.6857  158.9264 C.3     1  UNL1        0.0242
      6 C         143.1077  139.2166  159.2197 C.3     1  UNL1        0.0328
      7 C         143.5847  138.6900  160.5407 C.3     1  UNL1        0.0242
      8 C         144.1374  139.6325  161.5684 C.3     1  UNL1        0.0935
      9 C         142.5530  139.3648  157.8340 C.3     1  UNL1        0.0737
     10 N         142.3260  137.8836  157.7663 N.3     1  UNL1       -0.2702
     11 C         142.8807  137.7354  159.1520 C.3     1  UNL1        0.0737
     12 C         141.7733  136.9411  156.7386 C.3     1  UNL1        0.0801
     13 C         140.5009  137.1265  155.9661 C.3     1  UNL1        0.0251
     14 C         140.3371  135.9477  155.0530 C.3     1  UNL1        0.0278
     15 C         141.5082  135.0339  155.2613 C.ar    1  UNL1       -0.0248
     16 C         141.8811  133.7219  154.6369 C.ar    1  UNL1       -0.0030
     17 C         143.1415  133.0240  155.0543 C.ar    1  UNL1        0.0174
     18 C         144.0291  133.6380  156.0961 C.ar    1  UNL1        0.0012
     19 C         143.6562  134.9499  156.7204 C.ar    1  UNL1       -0.0032
     20 C         142.3958  135.6479  156.3030 C.ar    1  UNL1       -0.0117
     21 C         143.5143  131.7121  154.4299 C.ar    1  UNL1        0.0842
     22 C         144.1737  130.6483  155.2567 C.ar    1  UNL1        0.0339
     23 C         144.5465  129.3365  154.6322 C.ar    1  UNL1        0.0626
     24 C         145.2059  128.2727  155.4590 C.3     1  UNL1        0.0522
     25 N         144.2599  129.0883  153.1809 N.ar    1  UNL1       -0.2283
     26 C         143.6005  130.1520  152.3541 C.ar    1  UNL1        0.1985
     27 N         143.2277  131.4639  152.9786 N.ar    1  UNL1       -0.2240
     28 C         145.2429  141.5175  163.6238 C.3     1  UNL1        0.1117
     29 C         142.2924  140.7226  166.9272 C.ar    1  UNL1        0.1389
     30 C         142.7358  139.6034  166.0323 C.ar    1  UNL1        0.0366
     31 C         143.7193  139.8684  164.9312 C.ar    1  UNL1       -0.0005
     32 C         144.2594  141.2526  164.7250 C.ar    1  UNL1       -0.0085
     33 C         143.8160  142.3717  165.6199 C.ar    1  UNL1        0.0527
     34 C         142.8325  142.1067  166.7210 C.ar    1  UNL1        0.0411
     35 C         144.3561  143.7558  165.4137 C.2     1  UNL1        0.2426
     36 N         143.7396  144.6558  164.3842 N.am    1  UNL1       -0.3253
     37 O         145.5126  144.2399  166.2371 O.2     1  UNL1       -0.2704
     38 H         142.9805  144.3380  163.8438 H       1  UNL1        0.1453
     39 H         144.0941  145.5642  164.2489 H       1  UNL1        0.1453
     40 C         139.8949  140.0824  167.6969 C.3     1  UNL1        0.2525
     41 O         141.3089  140.4576  168.0284 O.3     1  UNL1       -0.4714
@<TRIPOS>BOND
     1    40    41    1
     2    41    29    1
     3    29    30   ar
     4    30    31   ar
     5    31    32   ar
     6    32    28    1
     7    28     1    1
     8     1     2    2
     9     1     3   am
    10     3     4    1
    11     4     5    1
    12     5     6    1
    13     6     7    1
    14     7     8    1
    15     6     9    1
    16     9    10    1
    17    12    10    1
    18    12    13    1
    19    13    14    1
    20    14    15    1
    21    15    16   ar
    22    16    17   ar
    23    17    21    1
    24    21    22   ar
    25    22    23   ar
    26    23    24    1
    27    23    25   ar
    28    25    26   ar
    29    26    27   ar
    30    17    18   ar
    31    18    19   ar
    32    19    20   ar
    33    10    11    1
    34    32    33   ar
    35    33    35    1
    36    35    36   am
    37    35    37    2
    38    33    34   ar
    39    34    29   ar
    40     8     3    1
    41    20    12    1
    42    11     6    1
    43    20    15   ar
    44    27    21   ar
    45    36    38    1
    46    36    39    1
@<TRIPOS>MOLECULE
*****
 41 46 0 0 0
SMALL
GASTEIGER

@<TRIPOS>ATOM
      1 C         145.6295  141.0839  155.7483 C.2     1  UNL1        0.2301
      2 O         145.6794  140.2517  154.5014 O.2     1  UNL1       -0.2745
      3 N         144.7105  140.7000  156.8700 N.am    1  UNL1       -0.2793
      4 C         143.8415  139.4839  156.7447 C.3     1  UNL1        0.0935
      5 C         142.9225  139.1000  157.8664 C.3     1  UNL1        0.0242
      6 C         142.8727  139.9322  159.1133 C.3     1  UNL1        0.0328
      7 C         143.7417  141.1483  159.2386 C.3     1  UNL1        0.0242
      8 C         144.6607  141.5322  158.1170 C.3     1  UNL1        0.0935
      9 C         141.8884  138.8245  159.3463 C.3     1  UNL1        0.0737
     10 N         141.5730  139.3892  160.6997 N.3     1  UNL1       -0.2702
     11 C         142.5573  140.4969  160.4667 C.3     1  UNL1        0.0737
     12 C         140.6541  139.0053  161.8213 C.3     1  UNL1        0.0801
     13 C         139.5786  137.9614  161.7620 C.3     1  UNL1        0.0251
     14 C         138.9091  137.9088  163.1032 C.3     1  UNL1        0.0278
     15 C         139.5708  138.9203  163.9915 C.ar    1  UNL1       -0.0248
     16 C         139.3306  139.3119  165.4194 C.ar    1  UNL1       -0.0030
     17 C         140.1689  140.3811  166.0551 C.ar    1  UNL1        0.0174
     18 C         141.2473  141.0587  165.2628 C.ar    1  UNL1        0.0012
     19 C         141.4875  140.6672  163.8349 C.ar    1  UNL1       -0.0032
     20 C         140.6492  139.5980  163.1992 C.ar    1  UNL1       -0.0117
     21 C         139.9287  140.7726  167.4831 C.ar    1  UNL1        0.0842
     22 C         140.3856  142.1118  167.9807 C.ar    1  UNL1        0.0339
     23 C         140.1453  142.5032  169.4086 C.ar    1  UNL1        0.0626
     24 C         140.6022  143.8424  169.9062 C.3     1  UNL1        0.0522
     25 N         139.4481  141.5554  170.3390 N.ar    1  UNL1       -0.2283
     26 C         138.9912  140.2161  169.8414 C.ar    1  UNL1        0.1985
     27 N         139.2315  139.8247  168.4134 N.ar    1  UNL1       -0.2240
     28 C         146.4986  142.3000  155.8737 C.3     1  UNL1        0.1117
     29 C         150.4179  142.5012  153.6718 C.ar    1  UNL1        0.1389
     30 C         150.3202  141.7407  154.9610 C.ar    1  UNL1        0.0366
     31 C         149.0137  141.6737  155.6949 C.ar    1  UNL1       -0.0005
     32 C         147.8051  142.3671  155.1396 C.ar    1  UNL1       -0.0085
     33 C         147.9028  143.1276  153.8505 C.ar    1  UNL1        0.0527
     34 C         149.2093  143.1946  153.1165 C.ar    1  UNL1        0.0411
     35 C         146.6942  143.8210  153.2952 C.2     1  UNL1        0.2426
     36 N         146.4196  145.2515  153.6532 N.am    1  UNL1       -0.3253
     37 O         145.7601  143.0839  152.3819 O.2     1  UNL1       -0.2704
     38 H         147.0327  145.7353  154.2527 H       1  UNL1        0.1453
     39 H         145.6263  145.7066  153.2888 H       1  UNL1        0.1453
     40 C         153.0061  142.2741  153.6595 C.3     1  UNL1        0.2525
     41 O         151.7244  142.5683  152.9378 O.3     1  UNL1       -0.4714
@<TRIPOS>BOND
     1    40    41    1
     2    41    29    1
     3    29    30   ar
     4    30    31   ar
     5    31    32   ar
     6    32    28    1
     7    28     1    1
     8     1     2    2
     9     1     3   am
    10     3     4    1
    11     4     5    1
    12     5     6    1
    13     6     7    1
    14     7     8    1
    15     6     9    1
    16     9    10    1
    17    12    10    1
    18    12    13    1
    19    13    14    1
    20    14    15    1
    21    15    16   ar
    22    16    17   ar
    23    17    21    1
    24    21    22   ar
    25    22    23   ar
    26    23    24    1
    27    23    25   ar
    28    25    26   ar
    29    26    27   ar
    30    17    18   ar
    31    18    19   ar
    32    19    20   ar
    33    10    11    1
    34    32    33   ar
    35    33    35    1
    36    35    36   am
    37    35    37    2
    38    33    34   ar
    39    34    29   ar
    40     8     3    1
    41    20    12    1
    42    11     6    1
    43    20    15   ar
    44    27    21   ar
    45    36    38    1
    46    36    39    1
@<TRIPOS>MOLECULE
*****
 41 46 0 0 0
SMALL
GASTEIGER

@<TRIPOS>ATOM
      1 C         143.1457  137.3882  155.6695 C.2     1  UNL1        0.2301
      2 O         143.1732  137.9766  154.2900 O.2     1  UNL1       -0.2745
      3 N         142.5215  138.1532  156.7988 N.am    1  UNL1       -0.2793
      4 C         141.9247  139.5064  156.5486 C.3     1  UNL1        0.0935
      5 C         141.3006  140.2713  157.6779 C.3     1  UNL1        0.0242
      6 C         141.2731  139.6829  159.0574 C.3     1  UNL1        0.0328
      7 C         141.8698  138.3297  159.3076 C.3     1  UNL1        0.0242
      8 C         142.4940  137.5648  158.1784 C.3     1  UNL1        0.0935
      9 C         140.5993  141.0164  159.1906 C.3     1  UNL1        0.0737
     10 N         140.3903  140.7647  160.6545 N.3     1  UNL1       -0.2702
     11 C         141.0641  139.4312  160.5213 C.3     1  UNL1        0.0737
     12 C         139.7661  141.5296  161.7838 C.3     1  UNL1        0.0801
     13 C         138.4710  142.2843  161.7278 C.3     1  UNL1        0.0251
     14 C         138.2319  142.8952  163.0768 C.3     1  UNL1        0.0278
     15 C         139.3792  142.5181  163.9663 C.ar    1  UNL1       -0.0248
     16 C         139.6831  142.8341  165.4008 C.ar    1  UNL1       -0.0030
     17 C         140.9351  142.3062  166.0362 C.ar    1  UNL1        0.0174
     18 C         141.8832  141.4622  165.2371 C.ar    1  UNL1        0.0012
     19 C         141.5794  141.1461  163.8027 C.ar    1  UNL1       -0.0032
     20 C         140.3274  141.6741  163.1672 C.ar    1  UNL1       -0.0117
     21 C         141.2389  142.6223  167.4708 C.ar    1  UNL1        0.0842
     22 C         142.5955  142.3197  168.0345 C.ar    1  UNL1        0.0339
     23 C         142.8992  142.6358  169.4689 C.ar    1  UNL1        0.0626
     24 C         144.2559  142.3332  170.0326 C.3     1  UNL1        0.0522
     25 N         141.8462  143.2546  170.3398 N.ar    1  UNL1       -0.2283
     26 C         140.4895  143.5572  169.7761 C.ar    1  UNL1        0.1985
     27 N         140.1858  143.2410  168.3416 N.ar    1  UNL1       -0.2240
     28 C         143.7424  136.0350  155.9198 C.3     1  UNL1        0.1117
     29 C         141.4341  132.3245  154.8458 C.ar    1  UNL1        0.1389
     30 C         141.3157  133.5540  153.9948 C.ar    1  UNL1        0.0366
     31 C         142.0852  134.7908  154.3528 C.ar    1  UNL1       -0.0005
     32 C         142.9730  134.7981  155.5618 C.ar    1  UNL1       -0.0085
     33 C         143.0913  133.5686  156.4128 C.ar    1  UNL1        0.0527
     34 C         142.3219  132.3318  156.0548 C.ar    1  UNL1        0.0411
     35 C         143.9791  133.5760  157.6219 C.2     1  UNL1        0.2426
     36 N         145.2433  132.7687  157.6290 N.am    1  UNL1       -0.3253
     37 O         143.6027  134.3906  158.8238 O.2     1  UNL1       -0.2704
     38 H         145.4903  132.2340  156.8401 H       1  UNL1        0.1453
     39 H         145.8260  132.7735  158.4225 H       1  UNL1        0.1453
     40 C         141.0690  130.2714  153.2961 C.3     1  UNL1        0.2525
     41 O         140.6646  131.0876  154.4878 O.3     1  UNL1       -0.4714
@<TRIPOS>BOND
     1    40    41    1
     2    41    29    1
     3    29    30   ar
     4    30    31   ar
     5    31    32   ar
     6    32    28    1
     7    28     1    1
     8     1     2    2
     9     1     3   am
    10     3     4    1
    11     4     5    1
    12     5     6    1
    13     6     7    1
    14     7     8    1
    15     6     9    1
    16     9    10    1
    17    12    10    1
    18    12    13    1
    19    13    14    1
    20    14    15    1
    21    15    16   ar
    22    16    17   ar
    23    17    21    1
    24    21    22   ar
    25    22    23   ar
    26    23    24    1
    27    23    25   ar
    28    25    26   ar
    29    26    27   ar
    30    17    18   ar
    31    18    19   ar
    32    19    20   ar
    33    10    11    1
    34    32    33   ar
    35    33    35    1
    36    35    36   am
    37    35    37    2
    38    33    34   ar
    39    34    29   ar
    40     8     3    1
    41    20    12    1
    42    11     6    1
    43    20    15   ar
    44    27    21   ar
    45    36    38    1
    46    36    39    1
@<TRIPOS>MOLECULE
*****
 41 46 0 0 0
SMALL
GASTEIGER

@<TRIPOS>ATOM
      1 C         142.9868  143.8934  155.5571 C.2     1  UNL1        0.2301
      2 O         143.0129  145.1421  154.7264 O.2     1  UNL1       -0.2745
      3 N         142.4334  143.9312  156.9508 N.am    1  UNL1       -0.2793
      4 C         141.9061  145.2177  157.5137 C.3     1  UNL1        0.0935
      5 C         141.3528  145.2554  158.9074 C.3     1  UNL1        0.0242
      6 C         141.3267  144.0067  159.7381 C.3     1  UNL1        0.0328
      7 C         141.8540  142.7203  159.1751 C.3     1  UNL1        0.0242
      8 C         142.4074  142.6825  157.7815 C.3     1  UNL1        0.0935
      9 C         140.7308  145.0684  160.6143 C.3     1  UNL1        0.0737
     10 N         140.5441  144.0601  161.7091 N.3     1  UNL1       -0.2702
     11 C         141.1400  142.9985  160.8329 C.3     1  UNL1        0.0737
     12 C         139.9907  144.0979  163.1028 C.3     1  UNL1        0.0801
     13 C         138.7465  144.8135  163.5383 C.3     1  UNL1        0.0251
     14 C         138.5712  144.5845  165.0103 C.3     1  UNL1        0.0278
     15 C         139.7071  143.7274  165.4845 C.ar    1  UNL1       -0.0248
     16 C         140.0560  143.1820  166.8376 C.ar    1  UNL1       -0.0030
     17 C         141.2822  142.3358  167.0117 C.ar    1  UNL1        0.0174
     18 C         142.1595  142.0350  165.8328 C.ar    1  UNL1        0.0012
     19 C         141.8107  142.5804  164.4798 C.ar    1  UNL1       -0.0032
     20 C         140.5844  143.4267  164.3056 C.ar    1  UNL1       -0.0117
     21 C         141.6311  141.7903  168.3648 C.ar    1  UNL1        0.0842
     22 C         142.0893  140.3690  168.5053 C.ar    1  UNL1        0.0339
     23 C         142.4381  139.8236  169.8583 C.ar    1  UNL1        0.0626
     24 C         142.8963  138.4023  169.9988 C.3     1  UNL1        0.0522
     25 N         142.3287  140.6996  171.0711 N.ar    1  UNL1       -0.2283
     26 C         141.8704  142.1210  170.9307 C.ar    1  UNL1        0.1985
     27 N         141.5216  142.6663  169.5775 N.ar    1  UNL1       -0.2240
     28 C         143.5141  142.6070  154.9941 C.3     1  UNL1        0.1117
     29 C         147.7495  142.3773  153.4910 C.ar    1  UNL1        0.1389
     30 C         146.6450  142.7853  152.5618 C.ar    1  UNL1        0.0366
     31 C         145.2332  142.8618  153.0628 C.ar    1  UNL1       -0.0005
     32 C         144.9260  142.5304  154.4931 C.ar    1  UNL1       -0.0085
     33 C         146.0305  142.1224  155.4224 C.ar    1  UNL1        0.0527
     34 C         147.4422  142.0459  154.9213 C.ar    1  UNL1        0.0411
     35 C         145.7232  141.7910  156.8527 C.2     1  UNL1        0.2426
     36 N         145.9498  142.8149  157.9251 N.am    1  UNL1       -0.3253
     37 O         145.1894  140.4357  157.2105 O.2     1  UNL1       -0.2704
     38 H         146.3001  143.7045  157.6903 H       1  UNL1        0.1453
     39 H         145.7481  142.5974  158.8639 H       1  UNL1        0.1453
     40 C         149.9653  143.5554  152.8183 C.3     1  UNL1        0.2525
     41 O         149.1613  142.3007  152.9900 O.3     1  UNL1       -0.4714
@<TRIPOS>BOND
     1    40    41    1
     2    41    29    1
     3    29    30   ar
     4    30    31   ar
     5    31    32   ar
     6    32    28    1
     7    28     1    1
     8     1     2    2
     9     1     3   am
    10     3     4    1
    11     4     5    1
    12     5     6    1
    13     6     7    1
    14     7     8    1
    15     6     9    1
    16     9    10    1
    17    12    10    1
    18    12    13    1
    19    13    14    1
    20    14    15    1
    21    15    16   ar
    22    16    17   ar
    23    17    21    1
    24    21    22   ar
    25    22    23   ar
    26    23    24    1
    27    23    25   ar
    28    25    26   ar
    29    26    27   ar
    30    17    18   ar
    31    18    19   ar
    32    19    20   ar
    33    10    11    1
    34    32    33   ar
    35    33    35    1
    36    35    36   am
    37    35    37    2
    38    33    34   ar
    39    34    29   ar
    40     8     3    1
    41    20    12    1
    42    11     6    1
    43    20    15   ar
    44    27    21   ar
    45    36    38    1
    46    36    39    1
@<TRIPOS>MOLECULE
*****
 41 46 0 0 0
SMALL
GASTEIGER

@<TRIPOS>ATOM
      1 C         143.0966  143.5990  162.1938 C.2     1  UNL1        0.2301
      2 O         144.4719  144.1970  162.1626 O.2     1  UNL1       -0.2745
      3 N         142.7174  142.5381  161.2035 N.am    1  UNL1       -0.2793
      4 C         143.7135  142.0753  160.1819 C.3     1  UNL1        0.0935
      5 C         143.3343  141.0144  159.1916 C.3     1  UNL1        0.0242
      6 C         141.9590  140.4164  159.2228 C.3     1  UNL1        0.0328
      7 C         140.9629  140.8793  160.2443 C.3     1  UNL1        0.0242
      8 C         141.3421  141.9402  161.2346 C.3     1  UNL1        0.0935
      9 C         142.6589  139.7214  158.0928 C.3     1  UNL1        0.0737
     10 N         141.4227  138.9161  157.8222 N.3     1  UNL1       -0.2702
     11 C         140.7227  139.6111  158.9523 C.3     1  UNL1        0.0737
     12 C         141.0435  137.8553  156.8319 C.3     1  UNL1        0.0801
     13 C         139.8413  137.8756  155.9350 C.3     1  UNL1        0.0251
     14 C         139.8547  136.6208  155.1134 C.3     1  UNL1        0.0278
     15 C         141.0651  135.8249  155.5025 C.ar    1  UNL1       -0.0248
     16 C         141.5932  134.5039  155.0269 C.ar    1  UNL1       -0.0030
     17 C         142.8560  133.9459  155.6134 C.ar    1  UNL1        0.0174
     18 C         143.5906  134.7089  156.6755 C.ar    1  UNL1        0.0012
     19 C         143.0626  136.0298  157.1511 C.ar    1  UNL1       -0.0032
     20 C         141.7997  136.5878  156.5646 C.ar    1  UNL1       -0.0117
     21 C         143.3840  132.6249  155.1377 C.ar    1  UNL1        0.0842
     22 C         142.9658  132.0872  153.8014 C.ar    1  UNL1        0.0339
     23 C         143.4938  130.7663  153.3258 C.ar    1  UNL1        0.0626
     24 C         143.0755  130.2286  151.9894 C.3     1  UNL1        0.0522
     25 N         144.4402  129.9830  154.1866 N.ar    1  UNL1       -0.2283
     26 C         144.8584  130.5207  155.5229 C.ar    1  UNL1        0.1985
     27 N         144.3303  131.8417  155.9985 N.ar    1  UNL1       -0.2240
     28 C         142.1006  144.0619  163.2153 C.3     1  UNL1        0.1117
     29 C         141.8632  142.0144  167.2155 C.ar    1  UNL1        0.1389
     30 C         143.1892  142.1762  166.5333 C.ar    1  UNL1        0.0366
     31 C         143.2683  142.8587  165.2000 C.ar    1  UNL1       -0.0005
     32 C         142.0214  143.3794  164.5488 C.ar    1  UNL1       -0.0085
     33 C         140.6954  143.2175  165.2309 C.ar    1  UNL1        0.0527
     34 C         140.6163  142.5350  166.5643 C.ar    1  UNL1        0.0411
     35 C         139.4484  143.7382  164.5797 C.2     1  UNL1        0.2426
     36 N         138.9386  145.1065  164.9225 N.am    1  UNL1       -0.3253
     37 O         138.7114  142.8904  163.5857 O.2     1  UNL1       -0.2704
     38 H         139.4223  145.6630  165.5749 H       1  UNL1        0.1453
     39 H         138.1202  145.4482  164.4951 H       1  UNL1        0.1453
     40 C         143.0191  141.1751  169.3857 C.3     1  UNL1        0.2525
     41 O         141.7840  141.3318  168.5489 O.3     1  UNL1       -0.4714
@<TRIPOS>BOND
     1    40    41    1
     2    41    29    1
     3    29    30   ar
     4    30    31   ar
     5    31    32   ar
     6    32    28    1
     7    28     1    1
     8     1     2    2
     9     1     3   am
    10     3     4    1
    11     4     5    1
    12     5     6    1
    13     6     7    1
    14     7     8    1
    15     6     9    1
    16     9    10    1
    17    12    10    1
    18    12    13    1
    19    13    14    1
    20    14    15    1
    21    15    16   ar
    22    16    17   ar
    23    17    21    1
    24    21    22   ar
    25    22    23   ar
    26    23    24    1
    27    23    25   ar
    28    25    26   ar
    29    26    27   ar
    30    17    18   ar
    31    18    19   ar
    32    19    20   ar
    33    10    11    1
    34    32    33   ar
    35    33    35    1
    36    35    36   am
    37    35    37    2
    38    33    34   ar
    39    34    29   ar
    40     8     3    1
    41    20    12    1
    42    11     6    1
    43    20    15   ar
    44    27    21   ar
    45    36    38    1
    46    36    39    1
@<TRIPOS>MOLECULE
*****
 41 46 0 0 0
SMALL
GASTEIGER

@<TRIPOS>ATOM
      1 C         139.6861  142.8205  159.5267 C.2     1  UNL1        0.2301
      2 O         138.3879  142.8469  160.2778 O.2     1  UNL1       -0.2745
      3 N         140.0414  141.6310  158.6847 N.am    1  UNL1       -0.2793
      4 C         139.0986  140.4679  158.5938 C.3     1  UNL1        0.0935
      5 C         139.4539  139.2784  157.7519 C.3     1  UNL1        0.0242
      6 C         140.7521  139.2521  157.0008 C.3     1  UNL1        0.0328
      7 C         141.6949  140.4152  157.0917 C.3     1  UNL1        0.0242
      8 C         141.3396  141.6046  157.9336 C.3     1  UNL1        0.0935
      9 C         140.0885  137.9469  156.6750 C.3     1  UNL1        0.0737
     10 N         141.2546  137.5698  155.8101 N.3     1  UNL1       -0.2702
     11 C         141.9182  138.8750  156.1359 C.3     1  UNL1        0.0737
     12 C         141.6100  136.3804  154.9682 C.3     1  UNL1        0.0801
     13 C         141.4289  136.2653  153.4836 C.3     1  UNL1        0.0251
     14 C         141.9158  134.9110  153.0609 C.3     1  UNL1        0.0278
     15 C         142.3978  134.1891  154.2841 C.ar    1  UNL1       -0.0248
     16 C         142.9845  132.8221  154.4770 C.ar    1  UNL1       -0.0030
     17 C         143.3821  132.3633  155.8486 C.ar    1  UNL1        0.0174
     18 C         143.1931  133.2715  157.0274 C.ar    1  UNL1        0.0012
     19 C         142.6065  134.6384  156.8346 C.ar    1  UNL1       -0.0032
     20 C         142.2088  135.0973  155.4629 C.ar    1  UNL1       -0.0117
     21 C         143.9688  130.9963  156.0414 C.ar    1  UNL1        0.0842
     22 C         144.0032  130.3808  157.4089 C.ar    1  UNL1        0.0339
     23 C         144.5899  129.0139  157.6016 C.ar    1  UNL1        0.0626
     24 C         144.6243  128.3985  158.9691 C.3     1  UNL1        0.0522
     25 N         145.1421  128.2622  156.4268 N.ar    1  UNL1       -0.2283
     26 C         145.1077  128.8777  155.0593 C.ar    1  UNL1        0.1985
     27 N         144.5210  130.2447  154.8666 N.ar    1  UNL1       -0.2240
     28 C         140.6289  143.9836  159.6176 C.3     1  UNL1        0.1117
     29 C         143.1937  144.5205  163.2759 C.ar    1  UNL1        0.1389
     30 C         143.7043  143.7234  162.1124 C.ar    1  UNL1        0.0366
     31 C         142.8494  143.5444  160.8930 C.ar    1  UNL1       -0.0005
     32 C         141.4838  144.1626  160.8371 C.ar    1  UNL1       -0.0085
     33 C         140.9732  144.9597  162.0006 C.ar    1  UNL1        0.0527
     34 C         141.8281  145.1387  163.2200 C.ar    1  UNL1        0.0411
     35 C         139.6076  145.5779  161.9446 C.2     1  UNL1        0.2426
     36 N         138.4345  144.8605  162.5439 N.am    1  UNL1       -0.3253
     37 O         139.4152  146.9134  161.2895 O.2     1  UNL1       -0.2704
     38 H         138.5608  143.9840  162.9739 H       1  UNL1        0.1453
     39 H         137.5383  145.2663  162.5072 H       1  UNL1        0.1453
     40 C         144.4410  143.5079  165.3177 C.3     1  UNL1        0.2525
     41 O         144.0486  144.6995  164.4954 O.3     1  UNL1       -0.4714
@<TRIPOS>BOND
     1    40    41    1
     2    41    29    1
     3    29    30   ar
     4    30    31   ar
     5    31    32   ar
     6    32    28    1
     7    28     1    1
     8     1     2    2
     9     1     3   am
    10     3     4    1
    11     4     5    1
    12     5     6    1
    13     6     7    1
    14     7     8    1
    15     6     9    1
    16     9    10    1
    17    12    10    1
    18    12    13    1
    19    13    14    1
    20    14    15    1
    21    15    16   ar
    22    16    17   ar
    23    17    21    1
    24    21    22   ar
    25    22    23   ar
    26    23    24    1
    27    23    25   ar
    28    25    26   ar
    29    26    27   ar
    30    17    18   ar
    31    18    19   ar
    32    19    20   ar
    33    10    11    1
    34    32    33   ar
    35    33    35    1
    36    35    36   am
    37    35    37    2
    38    33    34   ar
    39    34    29   ar
    40     8     3    1
    41    20    12    1
    42    11     6    1
    43    20    15   ar
    44    27    21   ar
    45    36    38    1
    46    36    39    1
@<TRIPOS>MOLECULE
*****
 41 46 0 0 0
SMALL
GASTEIGER

@<TRIPOS>ATOM
      1 C         142.3343  138.9587  163.5605 C.2     1  UNL1        0.2301
      2 O         143.8300  138.8516  163.5978 O.2     1  UNL1       -0.2745
      3 N         141.6617  139.6760  162.4277 N.am    1  UNL1       -0.2793
      4 C         142.4849  140.2861  161.3322 C.3     1  UNL1        0.0935
      5 C         141.8123  141.0034  160.1994 C.3     1  UNL1        0.0242
      6 C         140.3166  141.1104  160.1621 C.3     1  UNL1        0.0328
      7 C         139.4935  140.5003  161.2576 C.3     1  UNL1        0.0242
      8 C         140.1660  139.7830  162.3903 C.3     1  UNL1        0.0935
      9 C         140.7877  141.8230  158.9291 C.3     1  UNL1        0.0737
     10 N         139.3655  142.1248  158.5600 N.3     1  UNL1       -0.2702
     11 C         138.8944  141.4122  159.7930 C.3     1  UNL1        0.0737
     12 C         138.6929  142.8420  157.4273 C.3     1  UNL1        0.0801
     13 C         137.5357  142.3294  156.6223 C.3     1  UNL1        0.0251
     14 C         137.1871  143.3684  155.5981 C.3     1  UNL1        0.0278
     15 C         138.1288  144.5231  155.7701 C.ar    1  UNL1       -0.0248
     16 C         138.2592  145.8288  155.0433 C.ar    1  UNL1       -0.0030
     17 C         139.3202  146.8092  155.4471 C.ar    1  UNL1        0.0174
     18 C         140.2509  146.4839  156.5776 C.ar    1  UNL1        0.0012
     19 C         140.1205  145.1783  157.3043 C.ar    1  UNL1       -0.0032
     20 C         139.0595  144.1978  156.9006 C.ar    1  UNL1       -0.0117
     21 C         139.4505  148.1149  154.7203 C.ar    1  UNL1        0.0842
     22 C         138.9220  149.3744  155.3402 C.ar    1  UNL1        0.0339
     23 C         139.0523  150.6800  154.6134 C.ar    1  UNL1        0.0626
     24 C         138.5239  151.9395  155.2334 C.3     1  UNL1        0.0522
     25 N         139.7112  150.7262  153.2666 N.ar    1  UNL1       -0.2283
     26 C         140.2396  149.4667  152.6467 C.ar    1  UNL1        0.1985
     27 N         140.1093  148.1611  153.3735 N.ar    1  UNL1       -0.2240
     28 C         141.5111  138.3485  164.6560 C.3     1  UNL1        0.1117
     29 C         141.1492  140.4346  168.6268 C.ar    1  UNL1        0.1389
     30 C         142.5028  140.0791  168.0870 C.ar    1  UNL1        0.0366
     31 C         142.6234  139.3838  166.7634 C.ar    1  UNL1       -0.0005
     32 C         141.3904  139.0439  165.9796 C.ar    1  UNL1       -0.0085
     33 C         140.0369  139.3993  166.5194 C.ar    1  UNL1        0.0527
     34 C         139.9163  140.0947  167.8430 C.ar    1  UNL1        0.0411
     35 C         138.8039  139.0595  165.7357 C.2     1  UNL1        0.2426
     36 N         137.9593  140.1542  165.1543 N.am    1  UNL1       -0.3253
     37 O         138.4156  137.6248  165.5333 O.2     1  UNL1       -0.2704
     38 H         138.2142  141.0958  165.2871 H       1  UNL1        0.1453
     39 H         137.1501  139.9311  164.6399 H       1  UNL1        0.1453
     40 C         142.0184  140.8442  171.0407 C.3     1  UNL1        0.2525
     41 O         141.0286  141.1299  169.9504 O.3     1  UNL1       -0.4714
@<TRIPOS>BOND
     1    40    41    1
     2    41    29    1
     3    29    30   ar
     4    30    31   ar
     5    31    32   ar
     6    32    28    1
     7    28     1    1
     8     1     2    2
     9     1     3   am
    10     3     4    1
    11     4     5    1
    12     5     6    1
    13     6     7    1
    14     7     8    1
    15     6     9    1
    16     9    10    1
    17    12    10    1
    18    12    13    1
    19    13    14    1
    20    14    15    1
    21    15    16   ar
    22    16    17   ar
    23    17    21    1
    24    21    22   ar
    25    22    23   ar
    26    23    24    1
    27    23    25   ar
    28    25    26   ar
    29    26    27   ar
    30    17    18   ar
    31    18    19   ar
    32    19    20   ar
    33    10    11    1
    34    32    33   ar
    35    33    35    1
    36    35    36   am
    37    35    37    2
    38    33    34   ar
    39    34    29   ar
    40     8     3    1
    41    20    12    1
    42    11     6    1
    43    20    15   ar
    44    27    21   ar
    45    36    38    1
    46    36    39    1
@<TRIPOS>MOLECULE
*****
 41 46 0 0 0
SMALL
GASTEIGER

@<TRIPOS>ATOM
      1 C         139.8310  138.1308  164.2190 C.2     1  UNL1        0.2301
      2 O         138.8409  137.1999  164.8538 O.2     1  UNL1       -0.2745
      3 N         139.4793  138.8473  162.9489 N.am    1  UNL1       -0.2793
      4 C         138.1375  138.6329  162.3138 C.3     1  UNL1        0.0935
      5 C         137.7858  139.3493  161.0438 C.3     1  UNL1        0.0242
      6 C         138.7760  140.2802  160.4089 C.3     1  UNL1        0.0328
      7 C         140.1178  140.4947  161.0441 C.3     1  UNL1        0.0242
      8 C         140.4694  139.7782  162.3141 C.3     1  UNL1        0.0935
      9 C         137.5753  140.3193  159.5107 C.3     1  UNL1        0.0737
     10 N         138.2786  141.2936  158.6128 N.3     1  UNL1       -0.2702
     11 C         139.4793  141.2545  159.5110 C.3     1  UNL1        0.0737
     12 C         137.9269  142.0100  157.3428 C.3     1  UNL1        0.0801
     13 C         136.9461  141.5419  156.3090 C.3     1  UNL1        0.0251
     14 C         136.9073  142.5630  155.2108 C.3     1  UNL1        0.0278
     15 C         137.8642  143.6621  155.5660 C.ar    1  UNL1       -0.0248
     16 C         138.2431  144.9301  154.8598 C.ar    1  UNL1       -0.0030
     17 C         139.2522  145.8563  155.4713 C.ar    1  UNL1        0.0174
     18 C         139.8823  145.5146  156.7889 C.ar    1  UNL1        0.0012
     19 C         139.5034  144.2467  157.4950 C.ar    1  UNL1       -0.0032
     20 C         138.4943  143.3204  156.8836 C.ar    1  UNL1       -0.0117
     21 C         139.6311  147.1243  154.7650 C.ar    1  UNL1        0.0842
     22 C         139.1027  148.4409  155.2523 C.ar    1  UNL1        0.0339
     23 C         139.4816  149.7088  154.5460 C.ar    1  UNL1        0.0626
     24 C         138.9533  151.0254  155.0333 C.3     1  UNL1        0.0522
     25 N         140.3889  149.6601  153.3525 N.ar    1  UNL1       -0.2283
     26 C         140.9173  148.3435  152.8652 C.ar    1  UNL1        0.1985
     27 N         140.5383  147.0756  153.5715 N.ar    1  UNL1       -0.2240
     28 C         141.1728  138.3452  164.8542 C.3     1  UNL1        0.1117
     29 C         141.4983  140.6643  168.6968 C.ar    1  UNL1        0.1389
     30 C         140.1822  140.5771  167.9827 C.ar    1  UNL1        0.0366
     31 C         140.0737  139.8041  166.7018 C.ar    1  UNL1       -0.0005
     32 C         141.2814  139.1183  166.1351 C.ar    1  UNL1       -0.0085
     33 C         142.5975  139.2054  166.8493 C.ar    1  UNL1        0.0527
     34 C         142.7060  139.9784  168.1302 C.ar    1  UNL1        0.0411
     35 C         143.8052  138.5195  166.2826 C.2     1  UNL1        0.2426
     36 N         144.4489  139.0446  165.0337 N.am    1  UNL1       -0.3253
     37 O         144.3691  137.3085  166.9649 O.2     1  UNL1       -0.2704
     38 H         144.0788  139.8394  164.5859 H       1  UNL1        0.1453
     39 H         145.2416  138.5944  164.6618 H       1  UNL1        0.1453
     40 C         142.0148  142.8805  169.9505 C.3     1  UNL1        0.2525
     41 O         141.6069  141.4373  169.9778 O.3     1  UNL1       -0.4714
@<TRIPOS>BOND
     1    40    41    1
     2    41    29    1
     3    29    30   ar
     4    30    31   ar
     5    31    32   ar
     6    32    28    1
     7    28     1    1
     8     1     2    2
     9     1     3   am
    10     3     4    1
    11     4     5    1
    12     5     6    1
    13     6     7    1
    14     7     8    1
    15     6     9    1
    16     9    10    1
    17    12    10    1
    18    12    13    1
    19    13    14    1
    20    14    15    1
    21    15    16   ar
    22    16    17   ar
    23    17    21    1
    24    21    22   ar
    25    22    23   ar
    26    23    24    1
    27    23    25   ar
    28    25    26   ar
    29    26    27   ar
    30    17    18   ar
    31    18    19   ar
    32    19    20   ar
    33    10    11    1
    34    32    33   ar
    35    33    35    1
    36    35    36   am
    37    35    37    2
    38    33    34   ar
    39    34    29   ar
    40     8     3    1
    41    20    12    1
    42    11     6    1
    43    20    15   ar
    44    27    21   ar
    45    36    38    1
    46    36    39    1
@<TRIPOS>MOLECULE
*****
 41 46 0 0 0
SMALL
GASTEIGER

@<TRIPOS>ATOM
      1 C         141.8540  141.3579  163.0131 C.2     1  UNL1        0.2301
      2 O         143.1992  141.7378  163.5575 O.2     1  UNL1       -0.2745
      3 N         141.7559  140.5461  161.7556 N.am    1  UNL1       -0.2793
      4 C         143.0028  140.1142  161.0424 C.3     1  UNL1        0.0935
      5 C         142.9045  139.3025  159.7849 C.3     1  UNL1        0.0242
      6 C         141.5594  138.9226  159.2406 C.3     1  UNL1        0.0328
      7 C         140.3125  139.3545  159.9537 C.3     1  UNL1        0.0242
      8 C         140.4107  140.1663  161.2112 C.3     1  UNL1        0.0935
      9 C         142.5481  138.3273  158.2824 C.3     1  UNL1        0.0737
     10 N         141.4205  137.7746  157.4621 N.3     1  UNL1       -0.2702
     11 C         140.4317  138.3698  158.4202 C.3     1  UNL1        0.0737
     12 C         141.3222  136.9628  156.2046 C.3     1  UNL1        0.0801
     13 C         140.5706  137.3459  154.9643 C.3     1  UNL1        0.0251
     14 C         140.7422  136.2453  153.9597 C.3     1  UNL1        0.0278
     15 C         141.5999  135.1820  154.5791 C.ar    1  UNL1       -0.0248
     16 C         142.1008  133.8672  154.0591 C.ar    1  UNL1       -0.0030
     17 C         142.9602  132.9959  154.9264 C.ar    1  UNL1        0.0174
     18 C         143.3187  133.4394  156.3137 C.ar    1  UNL1        0.0012
     19 C         142.8178  134.7541  156.8338 C.ar    1  UNL1       -0.0032
     20 C         141.9584  135.6255  155.9665 C.ar    1  UNL1       -0.0117
     21 C         143.4611  131.6811  154.4062 C.ar    1  UNL1        0.0842
     22 C         144.0935  130.6955  155.3435 C.ar    1  UNL1        0.0339
     23 C         144.5944  129.3808  154.8233 C.ar    1  UNL1        0.0626
     24 C         145.2268  128.3952  155.7606 C.3     1  UNL1        0.0522
     25 N         144.4628  129.0517  153.3658 N.ar    1  UNL1       -0.2283
     26 C         143.8304  130.0373  152.4285 C.ar    1  UNL1        0.1985
     27 N         143.3295  131.3520  152.9487 N.ar    1  UNL1       -0.2240
     28 C         140.6071  141.7898  163.7263 C.3     1  UNL1        0.1117
     29 C         139.8016  140.3597  167.9162 C.ar    1  UNL1        0.1389
     30 C         140.8883  141.3618  167.6618 C.ar    1  UNL1        0.0366
     31 C         141.1568  141.8385  166.2651 C.ar    1  UNL1       -0.0005
     32 C         140.3386  141.3131  165.1230 C.ar    1  UNL1       -0.0085
     33 C         139.2519  140.3110  165.3775 C.ar    1  UNL1        0.0527
     34 C         138.9834  139.8343  166.7741 C.ar    1  UNL1        0.0411
     35 C         138.4337  139.7855  164.2353 C.2     1  UNL1        0.2426
     36 N         137.3469  140.6308  163.6400 N.am    1  UNL1       -0.3253
     37 O         138.7023  138.4149  163.6885 O.2     1  UNL1       -0.2704
     38 H         137.1706  141.5304  163.9989 H       1  UNL1        0.1453
     39 H         136.8099  140.2859  162.8904 H       1  UNL1        0.1453
     40 C         140.6338  139.8881  170.3318 C.3     1  UNL1        0.2525
     41 O         139.5330  139.8829  169.3129 O.3     1  UNL1       -0.4714
@<TRIPOS>BOND
     1    40    41    1
     2    41    29    1
     3    29    30   ar
     4    30    31   ar
     5    31    32   ar
     6    32    28    1
     7    28     1    1
     8     1     2    2
     9     1     3   am
    10     3     4    1
    11     4     5    1
    12     5     6    1
    13     6     7    1
    14     7     8    1
    15     6     9    1
    16     9    10    1
    17    12    10    1
    18    12    13    1
    19    13    14    1
    20    14    15    1
    21    15    16   ar
    22    16    17   ar
    23    17    21    1
    24    21    22   ar
    25    22    23   ar
    26    23    24    1
    27    23    25   ar
    28    25    26   ar
    29    26    27   ar
    30    17    18   ar
    31    18    19   ar
    32    19    20   ar
    33    10    11    1
    34    32    33   ar
    35    33    35    1
    36    35    36   am
    37    35    37    2
    38    33    34   ar
    39    34    29   ar
    40     8     3    1
    41    20    12    1
    42    11     6    1
    43    20    15   ar
    44    27    21   ar
    45    36    38    1
    46    36    39    1
