@<TRIPOS>MOLECULE
*****
 43 48 0 0 0
SMALL
GASTEIGER

@<TRIPOS>ATOM
      1 N         138.8172  143.0114  157.1122 N.am    1  UNL1       -0.2975
      2 C         139.4810  141.8021  157.7011 C.2     1  UNL1        0.2459
      3 O         139.7505  140.6017  156.8429 O.2     1  UNL1       -0.2701
      4 H         138.6403  143.7992  157.6754 H       1  UNL1        0.1499
      5 C         139.8752  141.7931  159.1484 C.ar    1  UNL1        0.0534
      6 C         141.3238  141.7198  159.5307 C.ar    1  UNL1        0.0047
      7 C         141.7181  141.7108  160.9779 C.ar    1  UNL1        0.0048
      8 C         140.6638  141.7752  162.0429 C.ar    1  UNL1        0.0536
      9 C         139.2152  141.8485  161.6606 C.ar    1  UNL1        0.0048
     10 C         138.8208  141.8575  160.2133 C.ar    1  UNL1        0.0047
     11 C         141.0580  141.7663  163.4901 C.ar    1  UNL1        0.2296
     12 N         142.2801  142.4100  164.0750 N.ar    1  UNL1       -0.2082
     13 C         142.2767  142.1536  165.5529 C.ar    1  UNL1        0.1192
     14 C         143.2301  142.5469  166.6420 C.ar    1  UNL1        0.0326
     15 C         142.9594  142.1380  168.0596 C.ar    1  UNL1        0.0698
     16 C         141.7353  141.3358  168.3881 C.ar    1  UNL1        0.0091
     17 C         140.7819  140.9424  167.2990 C.ar    1  UNL1        0.0143
     18 C         141.0525  141.3513  165.8814 C.ar    1  UNL1        0.1607
     19 O         140.2993  141.1119  164.6065 O.2     1  UNL1       -0.4349
     20 C         139.5577  140.1402  167.6275 C.3     1  UNL1        0.0254
     21 C         139.0562  140.0815  169.0399 C.3     1  UNL1        0.0048
     22 C         138.8351  139.3966  166.5435 C.3     1  UNL1        0.0048
     23 C         143.9129  142.5314  169.1488 C.1     1  UNL1        0.1005
     24 N         144.8664  142.9248  170.2379 N.1     1  UNL1       -0.1908
     25 C         138.4230  143.0203  155.6649 C.3     1  UNL1        0.1355
     26 N         134.9876  141.2533  155.2893 N.am    1  UNL1       -0.2059
     27 C         136.1366  141.7176  156.1344 C.3     1  UNL1        0.1483
     28 C         137.1245  142.4028  155.2374 C.3     1  UNL1        0.2101
     29 O         136.5860  142.3619  153.8380 O.3     1  UNL1       -0.4345
     30 C         135.2653  141.6515  153.8701 C.2     1  UNL1        0.4098
     31 O         134.3781  141.3860  152.6901 O.2     1  UNL1       -0.2258
     32 C         131.3463  139.0523  156.7545 C.ar    1  UNL1        0.0253
     33 C         131.2061  140.4230  156.1617 C.ar    1  UNL1        0.0049
     34 C         132.4198  141.1567  155.6733 C.ar    1  UNL1        0.0348
     35 C         133.7738  140.5197  155.7777 C.ar    1  UNL1        0.1400
     36 N         133.9141  139.1489  156.3705 N.ar    1  UNL1       -0.2287
     37 C         132.7003  138.4152  156.8590 C.ar    1  UNL1        0.1008
     38 C         127.6936  136.9423  159.9304 C.3     1  UNL1        0.0382
     39 C         128.4536  137.3488  158.7027 C.ar    1  UNL1        0.0076
     40 C         128.0760  137.0304  157.2863 C.ar    1  UNL1        0.0027
     41 C         129.1138  137.6298  156.3841 C.ar    1  UNL1        0.0067
     42 C         130.1326  138.3186  157.2429 C.ar    1  UNL1        0.0306
     43 S         129.7245  138.1449  158.6760 S.2     1  UNL1       -0.0912
@<TRIPOS>BOND
     1    38    39    1
     2    39    40   ar
     3    40    41   ar
     4    41    42   ar
     5    42    32    1
     6    32    33   ar
     7    33    34   ar
     8    34    35   ar
     9    35    26    1
    10    26    27    1
    11    27    28    1
    12    28    25    1
    13    25     1    1
    14     1     2   am
    15     2     3    2
    16     2     5    1
    17     5     6   ar
    18     6     7   ar
    19     7     8   ar
    20     8    11    1
    21    11    12   ar
    22    12    13   ar
    23    13    14   ar
    24    14    15   ar
    25    15    23    1
    26    23    24    3
    27    15    16   ar
    28    16    17   ar
    29    17    20    1
    30    20    21    1
    31    20    22    1
    32    17    18   ar
    33    18    19   ar
    34     8     9   ar
    35     9    10   ar
    36    28    29    1
    37    29    30    1
    38    30    31    2
    39    35    36   ar
    40    36    37   ar
    41    42    43   ar
    42    43    39   ar
    43    37    32   ar
    44    30    26   am
    45    10     5   ar
    46    19    11   ar
    47    18    13   ar
    48     1     4    1
@<TRIPOS>MOLECULE
*****
 43 48 0 0 0
SMALL
GASTEIGER

@<TRIPOS>ATOM
      1 N         142.5001  143.0655  157.3752 N.am    1  UNL1       -0.2975
      2 C         142.3009  144.0993  158.4436 C.2     1  UNL1        0.2459
      3 O         142.4222  145.5565  158.1092 O.2     1  UNL1       -0.2701
      4 H         142.4205  142.1091  157.5947 H       1  UNL1        0.1499
      5 C         141.9803  143.6759  159.8464 C.ar    1  UNL1        0.0534
      6 C         142.2424  142.2648  160.2823 C.ar    1  UNL1        0.0047
      7 C         141.9218  141.8413  161.6852 C.ar    1  UNL1        0.0048
      8 C         141.3392  142.8289  162.6521 C.ar    1  UNL1        0.0536
      9 C         141.0771  144.2401  162.2162 C.ar    1  UNL1        0.0048
     10 C         141.3976  144.6636  160.8133 C.ar    1  UNL1        0.0047
     11 C         141.0186  142.4055  164.0550 C.ar    1  UNL1        0.2296
     12 N         141.3930  143.1435  165.3060 N.ar    1  UNL1       -0.2082
     13 C         140.8731  142.3638  166.4772 C.ar    1  UNL1        0.1192
     14 C         140.9433  142.6071  167.9557 C.ar    1  UNL1        0.0326
     15 C         140.3178  141.6304  168.9070 C.ar    1  UNL1        0.0698
     16 C         139.6221  140.4106  168.3798 C.ar    1  UNL1        0.0091
     17 C         139.5519  140.1674  166.9013 C.ar    1  UNL1        0.0143
     18 C         140.1774  141.1440  165.9501 C.ar    1  UNL1        0.1607
     19 O         140.2673  141.1697  164.4530 O.2     1  UNL1       -0.4349
     20 C         138.8561  138.9475  166.3742 C.3     1  UNL1        0.0254
     21 C         139.4390  138.1933  165.2160 C.3     1  UNL1        0.0048
     22 C         137.5774  138.4818  167.0052 C.3     1  UNL1        0.0048
     23 C         140.3880  141.8736  170.3855 C.1     1  UNL1        0.1005
     24 N         140.4583  142.1168  171.8640 N.1     1  UNL1       -0.1908
     25 C         142.8207  143.4889  155.9724 C.3     1  UNL1        0.1355
     26 N         145.9847  141.9391  154.3436 N.am    1  UNL1       -0.2059
     27 C         145.3398  142.8646  155.3322 C.3     1  UNL1        0.1483
     28 C         143.8526  142.7415  155.1806 C.3     1  UNL1        0.2101
     29 O         143.5783  141.7398  154.0983 O.3     1  UNL1       -0.4345
     30 C         144.8961  141.2439  153.5810 C.2     1  UNL1        0.4098
     31 O         145.0910  140.2306  152.4923 O.2     1  UNL1       -0.2258
     32 C         150.4087  141.3511  153.7669 C.ar    1  UNL1        0.0253
     33 C         149.8503  141.5367  155.1467 C.ar    1  UNL1        0.0049
     34 C         148.3757  141.7327  155.3390 C.ar    1  UNL1        0.0348
     35 C         147.4593  141.7431  154.1514 C.ar    1  UNL1        0.1400
     36 N         148.0176  141.5574  152.7716 N.ar    1  UNL1       -0.2287
     37 C         149.4924  141.3614  152.5794 C.ar    1  UNL1        0.1008
     38 C         155.6137  142.2263  153.6185 C.3     1  UNL1        0.0382
     39 C         154.2758  141.5574  153.5064 C.ar    1  UNL1        0.0076
     40 C         154.0294  140.1495  153.0512 C.ar    1  UNL1        0.0027
     41 C         152.5507  139.9009  153.0933 C.ar    1  UNL1        0.0067
     42 C         151.8833  141.1551  153.5747 C.ar    1  UNL1        0.0306
     43 S         152.9496  142.1788  153.8300 S.2     1  UNL1       -0.0912
@<TRIPOS>BOND
     1    38    39    1
     2    39    40   ar
     3    40    41   ar
     4    41    42   ar
     5    42    32    1
     6    32    33   ar
     7    33    34   ar
     8    34    35   ar
     9    35    26    1
    10    26    27    1
    11    27    28    1
    12    28    25    1
    13    25     1    1
    14     1     2   am
    15     2     3    2
    16     2     5    1
    17     5     6   ar
    18     6     7   ar
    19     7     8   ar
    20     8    11    1
    21    11    12   ar
    22    12    13   ar
    23    13    14   ar
    24    14    15   ar
    25    15    23    1
    26    23    24    3
    27    15    16   ar
    28    16    17   ar
    29    17    20    1
    30    20    21    1
    31    20    22    1
    32    17    18   ar
    33    18    19   ar
    34     8     9   ar
    35     9    10   ar
    36    28    29    1
    37    29    30    1
    38    30    31    2
    39    35    36   ar
    40    36    37   ar
    41    42    43   ar
    42    43    39   ar
    43    37    32   ar
    44    30    26   am
    45    10     5   ar
    46    19    11   ar
    47    18    13   ar
    48     1     4    1
@<TRIPOS>MOLECULE
*****
 43 48 0 0 0
SMALL
GASTEIGER

@<TRIPOS>ATOM
      1 N         144.1993  139.8801  157.7100 N.am    1  UNL1       -0.2975
      2 C         143.5006  139.4531  156.4532 C.2     1  UNL1        0.2459
      3 O         143.1200  140.4743  155.4226 O.2     1  UNL1       -0.2701
      4 H         144.4491  139.2098  158.3864 H       1  UNL1        0.1499
      5 C         143.1825  138.0047  156.2272 C.ar    1  UNL1        0.0534
      6 C         144.2414  137.0759  155.7113 C.ar    1  UNL1        0.0047
      7 C         143.9234  135.6275  155.4852 C.ar    1  UNL1        0.0048
      8 C         142.5464  135.1080  155.7750 C.ar    1  UNL1        0.0536
      9 C         141.4875  136.0368  156.2908 C.ar    1  UNL1        0.0048
     10 C         141.8055  137.4852  156.5169 C.ar    1  UNL1        0.0047
     11 C         142.2283  133.6596  155.5489 C.ar    1  UNL1        0.2296
     12 N         141.0500  133.1236  154.7911 N.ar    1  UNL1       -0.2082
     13 C         141.1262  131.6257  154.8148 C.ar    1  UNL1        0.1192
     14 C         140.2380  130.5663  154.2329 C.ar    1  UNL1        0.0326
     15 C         140.5753  129.1171  154.4233 C.ar    1  UNL1        0.0698
     16 C         141.8007  128.7274  155.1956 C.ar    1  UNL1        0.0091
     17 C         142.6889  129.7869  155.7776 C.ar    1  UNL1        0.0143
     18 C         142.3516  131.2360  155.5872 C.ar    1  UNL1        0.1607
     19 O         143.0328  132.4931  156.0409 O.2     1  UNL1       -0.4349
     20 C         143.9143  129.3972  156.5499 C.3     1  UNL1        0.0254
     21 C         144.0428  129.7784  157.9950 C.3     1  UNL1        0.0048
     22 C         145.0112  128.6263  155.8772 C.3     1  UNL1        0.0048
     23 C         139.6871  128.0575  153.8413 C.1     1  UNL1        0.1005
     24 N         138.7990  126.9981  153.2593 N.1     1  UNL1       -0.1908
     25 C         144.5174  141.3285  157.9361 C.3     1  UNL1        0.1355
     26 N         143.1300  142.6536  161.3102 N.am    1  UNL1       -0.2059
     27 C         143.8620  141.6162  160.5115 C.3     1  UNL1        0.1483
     28 C         143.8867  142.0651  159.0805 C.3     1  UNL1        0.2101
     29 O         143.1699  143.3800  158.9948 O.3     1  UNL1       -0.4345
     30 C         142.7023  143.7437  160.3729 C.2     1  UNL1        0.4098
     31 O         141.9406  144.9803  160.7477 O.2     1  UNL1       -0.2258
     32 C         142.3536  142.5191  165.7407 C.ar    1  UNL1        0.0253
     33 C         143.7341  142.8070  165.2296 C.ar    1  UNL1        0.0049
     34 C         143.9930  142.8519  163.7528 C.ar    1  UNL1        0.0348
     35 C         142.8712  142.6087  162.7870 C.ar    1  UNL1        0.1400
     36 N         141.4907  142.3207  163.2981 N.ar    1  UNL1       -0.2287
     37 C         141.2319  142.2759  164.7750 C.ar    1  UNL1        0.1008
     38 C         139.8883  142.5450  170.4100 C.3     1  UNL1        0.0382
     39 C         140.9616  142.4861  169.3637 C.ar    1  UNL1        0.0076
     40 C         142.4313  142.3244  169.6165 C.ar    1  UNL1        0.0027
     41 C         143.1316  142.3170  168.2899 C.ar    1  UNL1        0.0067
     42 C         142.0948  142.4742  167.2175 C.ar    1  UNL1        0.0306
     43 S         140.7536  142.5788  167.8812 S.2     1  UNL1       -0.0912
@<TRIPOS>BOND
     1    38    39    1
     2    39    40   ar
     3    40    41   ar
     4    41    42   ar
     5    42    32    1
     6    32    33   ar
     7    33    34   ar
     8    34    35   ar
     9    35    26    1
    10    26    27    1
    11    27    28    1
    12    28    25    1
    13    25     1    1
    14     1     2   am
    15     2     3    2
    16     2     5    1
    17     5     6   ar
    18     6     7   ar
    19     7     8   ar
    20     8    11    1
    21    11    12   ar
    22    12    13   ar
    23    13    14   ar
    24    14    15   ar
    25    15    23    1
    26    23    24    3
    27    15    16   ar
    28    16    17   ar
    29    17    20    1
    30    20    21    1
    31    20    22    1
    32    17    18   ar
    33    18    19   ar
    34     8     9   ar
    35     9    10   ar
    36    28    29    1
    37    29    30    1
    38    30    31    2
    39    35    36   ar
    40    36    37   ar
    41    42    43   ar
    42    43    39   ar
    43    37    32   ar
    44    30    26   am
    45    10     5   ar
    46    19    11   ar
    47    18    13   ar
    48     1     4    1
@<TRIPOS>MOLECULE
*****
 43 48 0 0 0
SMALL
GASTEIGER

@<TRIPOS>ATOM
      1 N         140.4769  141.6444  157.5397 N.am    1  UNL1       -0.2975
      2 C         141.8624  141.0742  157.4686 C.2     1  UNL1        0.2459
      3 O         143.0529  141.9782  157.5928 O.2     1  UNL1       -0.2701
      4 H         139.6956  141.0511  157.4582 H       1  UNL1        0.1499
      5 C         142.0574  139.5998  157.2731 C.ar    1  UNL1        0.0534
      6 C         142.4517  138.7351  158.4336 C.ar    1  UNL1        0.0047
      7 C         142.6467  137.2606  158.2382 C.ar    1  UNL1        0.0048
      8 C         142.4475  136.6510  156.8822 C.ar    1  UNL1        0.0536
      9 C         142.0532  137.5158  155.7217 C.ar    1  UNL1        0.0048
     10 C         141.8582  138.9902  155.9171 C.ar    1  UNL1        0.0047
     11 C         142.6425  135.1767  156.6867 C.ar    1  UNL1        0.2296
     12 N         143.6434  134.3174  157.4007 N.ar    1  UNL1       -0.2082
     13 C         143.4903  132.9124  156.8982 C.ar    1  UNL1        0.1192
     14 C         144.2069  131.6401  157.2412 C.ar    1  UNL1        0.0326
     15 C         143.8280  130.3587  156.5595 C.ar    1  UNL1        0.0698
     16 C         142.7326  130.3497  155.5350 C.ar    1  UNL1        0.0091
     17 C         142.0159  131.6220  155.1920 C.ar    1  UNL1        0.0143
     18 C         142.3948  132.9033  155.8736 C.ar    1  UNL1        0.1607
     19 O         141.8708  134.3028  155.7429 O.2     1  UNL1       -0.4349
     20 C         140.9204  131.6129  154.1674 C.3     1  UNL1        0.0254
     21 C         139.7086  130.7532  154.3727 C.3     1  UNL1        0.0048
     22 C         141.0368  132.4637  152.9374 C.3     1  UNL1        0.0048
     23 C         144.5447  129.0863  156.9025 C.1     1  UNL1        0.1005
     24 N         145.2613  127.8140  157.2456 N.1     1  UNL1       -0.1908
     25 C         140.2819  143.1188  157.7352 C.3     1  UNL1        0.1355
     26 N         140.4112  143.9105  161.5329 N.am    1  UNL1       -0.2059
     27 C         140.5234  142.9436  160.3916 C.3     1  UNL1        0.1483
     28 C         140.2691  143.6966  159.1195 C.3     1  UNL1        0.2101
     29 O         139.9997  145.1289  159.4746 O.3     1  UNL1       -0.4345
     30 C         140.0876  145.2610  160.9662 C.2     1  UNL1        0.4098
     31 O         139.8870  146.5223  161.7529 O.2     1  UNL1       -0.2258
     32 C         140.9509  142.9313  165.8918 C.ar    1  UNL1        0.0253
     33 C         139.6857  143.5853  165.4211 C.ar    1  UNL1        0.0049
     34 C         139.5058  143.9117  163.9681 C.ar    1  UNL1        0.0348
     35 C         140.5912  143.5841  162.9858 C.ar    1  UNL1        0.1400
     36 N         141.8564  142.9301  163.4565 N.ar    1  UNL1       -0.2287
     37 C         142.0363  142.6037  164.9096 C.ar    1  UNL1        0.1008
     38 C         142.7298  140.7753  170.3715 C.3     1  UNL1        0.0382
     39 C         141.9485  141.6139  169.4038 C.ar    1  UNL1        0.0076
     40 C         140.8669  142.5914  169.7574 C.ar    1  UNL1        0.0027
     41 C         140.3616  143.2038  168.4847 C.ar    1  UNL1        0.0067
     42 C         141.1309  142.6049  167.3447 C.ar    1  UNL1        0.0306
     43 S         142.1116  141.6223  167.9128 S.2     1  UNL1       -0.0912
@<TRIPOS>BOND
     1    38    39    1
     2    39    40   ar
     3    40    41   ar
     4    41    42   ar
     5    42    32    1
     6    32    33   ar
     7    33    34   ar
     8    34    35   ar
     9    35    26    1
    10    26    27    1
    11    27    28    1
    12    28    25    1
    13    25     1    1
    14     1     2   am
    15     2     3    2
    16     2     5    1
    17     5     6   ar
    18     6     7   ar
    19     7     8   ar
    20     8    11    1
    21    11    12   ar
    22    12    13   ar
    23    13    14   ar
    24    14    15   ar
    25    15    23    1
    26    23    24    3
    27    15    16   ar
    28    16    17   ar
    29    17    20    1
    30    20    21    1
    31    20    22    1
    32    17    18   ar
    33    18    19   ar
    34     8     9   ar
    35     9    10   ar
    36    28    29    1
    37    29    30    1
    38    30    31    2
    39    35    36   ar
    40    36    37   ar
    41    42    43   ar
    42    43    39   ar
    43    37    32   ar
    44    30    26   am
    45    10     5   ar
    46    19    11   ar
    47    18    13   ar
    48     1     4    1
@<TRIPOS>MOLECULE
*****
 43 48 0 0 0
SMALL
GASTEIGER

@<TRIPOS>ATOM
      1 N         140.1477  141.5393  157.3840 N.am    1  UNL1       -0.2975
      2 C         141.4939  140.9144  157.1670 C.2     1  UNL1        0.2459
      3 O         142.7286  141.7657  157.1909 O.2     1  UNL1       -0.2701
      4 H         139.3372  140.9806  157.3683 H       1  UNL1        0.1499
      5 C         141.6053  139.4381  156.9261 C.ar    1  UNL1        0.0534
      6 C         140.4463  138.6834  156.3454 C.ar    1  UNL1        0.0047
      7 C         140.5577  137.2070  156.1044 C.ar    1  UNL1        0.0048
      8 C         141.8280  136.4854  156.4442 C.ar    1  UNL1        0.0536
      9 C         142.9869  137.2401  157.0249 C.ar    1  UNL1        0.0048
     10 C         142.8756  138.7165  157.2659 C.ar    1  UNL1        0.0047
     11 C         141.9394  135.0090  156.2033 C.ar    1  UNL1        0.2296
     12 N         141.1146  134.2082  155.2398 N.ar    1  UNL1       -0.2082
     13 C         141.5606  132.7786  155.3246 C.ar    1  UNL1        0.1192
     14 C         141.1069  131.5414  154.6080 C.ar    1  UNL1        0.0326
     15 C         141.7537  130.2215  154.9074 C.ar    1  UNL1        0.0698
     16 C         142.8541  130.1388  155.9232 C.ar    1  UNL1        0.0091
     17 C         143.3079  131.3760  156.6398 C.ar    1  UNL1        0.0143
     18 C         142.6611  132.6959  156.3405 C.ar    1  UNL1        0.1607
     19 O         142.8952  134.0744  156.8836 O.2     1  UNL1       -0.4349
     20 C         144.4084  131.2932  157.6557 C.3     1  UNL1        0.0254
     21 C         145.2695  132.4909  157.9279 C.3     1  UNL1        0.0048
     22 C         144.6478  130.0127  158.3995 C.3     1  UNL1        0.0048
     23 C         141.2999  128.9843  154.1908 C.1     1  UNL1        0.1005
     24 N         140.8461  127.7471  153.4742 N.1     1  UNL1       -0.1908
     25 C         140.0363  143.0157  157.6249 C.3     1  UNL1        0.1355
     26 N         140.1306  143.6736  161.4490 N.am    1  UNL1       -0.2059
     27 C         140.1758  142.7353  160.2796 C.3     1  UNL1        0.1483
     28 C         140.0414  143.5493  159.0268 C.3     1  UNL1        0.2101
     29 O         139.9131  144.9906  159.4221 O.3     1  UNL1       -0.4345
     30 C         139.9682  145.0674  160.9191 C.2     1  UNL1        0.4098
     31 O         139.8770  146.3184  161.7418 O.2     1  UNL1       -0.2258
     32 C         140.4295  142.5109  165.7860 C.ar    1  UNL1        0.0253
     33 C         141.6091  143.1233  165.0907 C.ar    1  UNL1        0.0049
     34 C         141.5095  143.5109  163.6450 C.ar    1  UNL1        0.0348
     35 C         140.2302  143.2860  162.8946 C.ar    1  UNL1        0.1400
     36 N         139.0506  142.6735  163.5899 N.ar    1  UNL1       -0.2287
     37 C         139.1502  142.2859  165.0357 C.ar    1  UNL1        0.1008
     38 C         141.0444  139.6658  170.1914 C.3     1  UNL1        0.0382
     39 C         140.8118  140.8156  169.2565 C.ar    1  UNL1        0.0076
     40 C         140.5530  142.2382  169.6558 C.ar    1  UNL1        0.0027
     41 C         140.3783  143.0464  168.4042 C.ar    1  UNL1        0.0067
     42 C         140.5291  142.1233  167.2316 C.ar    1  UNL1        0.0306
     43 S         140.7970  140.7445  167.7584 S.2     1  UNL1       -0.0912
@<TRIPOS>BOND
     1    38    39    1
     2    39    40   ar
     3    40    41   ar
     4    41    42   ar
     5    42    32    1
     6    32    33   ar
     7    33    34   ar
     8    34    35   ar
     9    35    26    1
    10    26    27    1
    11    27    28    1
    12    28    25    1
    13    25     1    1
    14     1     2   am
    15     2     3    2
    16     2     5    1
    17     5     6   ar
    18     6     7   ar
    19     7     8   ar
    20     8    11    1
    21    11    12   ar
    22    12    13   ar
    23    13    14   ar
    24    14    15   ar
    25    15    23    1
    26    23    24    3
    27    15    16   ar
    28    16    17   ar
    29    17    20    1
    30    20    21    1
    31    20    22    1
    32    17    18   ar
    33    18    19   ar
    34     8     9   ar
    35     9    10   ar
    36    28    29    1
    37    29    30    1
    38    30    31    2
    39    35    36   ar
    40    36    37   ar
    41    42    43   ar
    42    43    39   ar
    43    37    32   ar
    44    30    26   am
    45    10     5   ar
    46    19    11   ar
    47    18    13   ar
    48     1     4    1
@<TRIPOS>MOLECULE
*****
 43 48 0 0 0
SMALL
GASTEIGER

@<TRIPOS>ATOM
      1 N         139.6456  139.8747  157.5583 N.am    1  UNL1       -0.2975
      2 C         141.0598  139.5109  157.2153 C.2     1  UNL1        0.2459
      3 O         142.1245  140.5674  157.2042 O.2     1  UNL1       -0.2701
      4 H         138.9469  139.1812  157.5656 H       1  UNL1        0.1499
      5 C         141.4093  138.0904  156.8833 C.ar    1  UNL1        0.0534
      6 C         142.5497  137.4148  157.5854 C.ar    1  UNL1        0.0047
      7 C         142.8992  135.9944  157.2535 C.ar    1  UNL1        0.0048
      8 C         142.1082  135.2495  156.2194 C.ar    1  UNL1        0.0536
      9 C         140.9678  135.9250  155.5172 C.ar    1  UNL1        0.0048
     10 C         140.6183  137.3455  155.8492 C.ar    1  UNL1        0.0047
     11 C         142.4577  133.8290  155.8873 C.ar    1  UNL1        0.2296
     12 N         143.8218  133.2120  155.9796 N.ar    1  UNL1       -0.2082
     13 C         143.7115  131.7779  155.5540 C.ar    1  UNL1        0.1192
     14 C         144.7302  130.6824  155.4441 C.ar    1  UNL1        0.0326
     15 C         144.3166  129.3176  154.9790 C.ar    1  UNL1        0.0698
     16 C         142.8844  129.0483  154.6238 C.ar    1  UNL1        0.0091
     17 C         141.8657  130.1438  154.7337 C.ar    1  UNL1        0.0143
     18 C         142.2792  131.5085  155.1988 C.ar    1  UNL1        0.1607
     19 O         141.5043  132.7763  155.4048 O.2     1  UNL1       -0.4349
     20 C         140.4335  129.8744  154.3785 C.3     1  UNL1        0.0254
     21 C         139.7914  130.6119  153.2410 C.3     1  UNL1        0.0048
     22 C         139.6432  128.8676  155.1609 C.3     1  UNL1        0.0048
     23 C         145.3354  128.2220  154.8691 C.1     1  UNL1        0.1005
     24 N         146.3541  127.1265  154.7591 N.1     1  UNL1       -0.1908
     25 C         139.2962  141.2951  157.8903 C.3     1  UNL1        0.1355
     26 N         139.3866  141.8119  161.7362 N.am    1  UNL1       -0.2059
     27 C         139.8107  141.0696  160.5037 C.3     1  UNL1        0.1483
     28 C         139.1501  141.7165  159.3226 C.3     1  UNL1        0.2101
     29 O         138.3176  142.8586  159.8251 O.3     1  UNL1       -0.4345
     30 C         138.4638  142.9176  161.3168 C.2     1  UNL1        0.4098
     31 O         137.8032  143.9083  162.2290 O.2     1  UNL1       -0.2258
     32 C         140.6592  140.8846  165.9517 C.ar    1  UNL1        0.0253
     33 C         139.2235  140.7218  165.5487 C.ar    1  UNL1        0.0049
     34 C         138.7993  141.0309  164.1435 C.ar    1  UNL1        0.0348
     35 C         139.8108  141.5028  163.1413 C.ar    1  UNL1        0.1400
     36 N         141.2465  141.6656  163.5444 N.ar    1  UNL1       -0.2287
     37 C         141.6707  141.3565  164.9496 C.ar    1  UNL1        0.1008
     38 C         140.8591  140.7705  171.2269 C.3     1  UNL1        0.0382
     39 C         141.1753  140.5231  169.7816 C.ar    1  UNL1        0.0076
     40 C         142.2971  139.6767  169.2569 C.ar    1  UNL1        0.0027
     41 C         142.2402  139.7092  167.7582 C.ar    1  UNL1        0.0067
     42 C         141.0834  140.5756  167.3569 C.ar    1  UNL1        0.0306
     43 S         140.4252  141.0786  168.6075 S.2     1  UNL1       -0.0912
@<TRIPOS>BOND
     1    38    39    1
     2    39    40   ar
     3    40    41   ar
     4    41    42   ar
     5    42    32    1
     6    32    33   ar
     7    33    34   ar
     8    34    35   ar
     9    35    26    1
    10    26    27    1
    11    27    28    1
    12    28    25    1
    13    25     1    1
    14     1     2   am
    15     2     3    2
    16     2     5    1
    17     5     6   ar
    18     6     7   ar
    19     7     8   ar
    20     8    11    1
    21    11    12   ar
    22    12    13   ar
    23    13    14   ar
    24    14    15   ar
    25    15    23    1
    26    23    24    3
    27    15    16   ar
    28    16    17   ar
    29    17    20    1
    30    20    21    1
    31    20    22    1
    32    17    18   ar
    33    18    19   ar
    34     8     9   ar
    35     9    10   ar
    36    28    29    1
    37    29    30    1
    38    30    31    2
    39    35    36   ar
    40    36    37   ar
    41    42    43   ar
    42    43    39   ar
    43    37    32   ar
    44    30    26   am
    45    10     5   ar
    46    19    11   ar
    47    18    13   ar
    48     1     4    1
@<TRIPOS>MOLECULE
*****
 43 48 0 0 0
SMALL
GASTEIGER

@<TRIPOS>ATOM
      1 N         138.8933  141.1324  157.1126 N.am    1  UNL1       -0.2975
      2 C         138.4930  142.0703  158.2125 C.2     1  UNL1        0.2459
      3 O         137.6667  143.2828  157.9007 O.2     1  UNL1       -0.2701
      4 H         139.4356  140.3366  157.3172 H       1  UNL1        0.1499
      5 C         138.9190  141.7958  159.6243 C.ar    1  UNL1        0.0534
      6 C         139.3695  140.4202  160.0178 C.ar    1  UNL1        0.0047
      7 C         139.7955  140.1456  161.4296 C.ar    1  UNL1        0.0048
      8 C         139.7710  141.2467  162.4479 C.ar    1  UNL1        0.0536
      9 C         139.3205  142.6222  162.0545 C.ar    1  UNL1        0.0048
     10 C         138.8945  142.8969  160.6427 C.ar    1  UNL1        0.0047
     11 C         140.1970  140.9721  163.8597 C.ar    1  UNL1        0.2296
     12 N         139.4966  141.4436  165.0995 N.ar    1  UNL1       -0.2082
     13 C         140.2650  140.9408  166.2856 C.ar    1  UNL1        0.1192
     14 C         140.0463  141.0941  167.7616 C.ar    1  UNL1        0.0326
     15 C         141.0029  140.4652  168.7308 C.ar    1  UNL1        0.0698
     16 C         142.1781  139.6830  168.2241 C.ar    1  UNL1        0.0091
     17 C         142.3969  139.5296  166.7481 C.ar    1  UNL1        0.0143
     18 C         141.4403  140.1585  165.7788 C.ar    1  UNL1        0.1607
     19 O         141.3983  140.1779  164.2795 O.2     1  UNL1       -0.4349
     20 C         143.5721  138.7474  166.2413 C.3     1  UNL1        0.0254
     21 C         144.0415  137.5324  166.9853 C.3     1  UNL1        0.0048
     22 C         144.2781  139.1801  164.9904 C.3     1  UNL1        0.0048
     23 C         140.7842  140.6186  170.2069 C.1     1  UNL1        0.1005
     24 N         140.5655  140.7720  171.6829 N.1     1  UNL1       -0.1908
     25 C         138.4673  141.4069  155.7008 C.3     1  UNL1        0.1355
     26 N         134.6670  140.6891  155.3722 N.am    1  UNL1       -0.2059
     27 C         135.9361  140.6880  156.1717 C.3     1  UNL1        0.1483
     28 C         137.0316  141.2313  155.3029 C.3     1  UNL1        0.2101
     29 O         136.4395  141.5680  153.9666 O.3     1  UNL1       -0.4345
     30 C         134.9780  141.2329  154.0094 C.2     1  UNL1        0.4098
     31 O         133.9995  141.4105  152.8865 O.2     1  UNL1       -0.2258
     32 C         130.6341  139.3037  156.8100 C.ar    1  UNL1        0.0253
     33 C         131.8275  138.4049  156.9440 C.ar    1  UNL1        0.0049
     34 C         133.1718  138.8667  156.4647 C.ar    1  UNL1        0.0348
     35 C         133.3227  140.2273  155.8515 C.ar    1  UNL1        0.1400
     36 N         132.1293  141.1261  155.7175 N.ar    1  UNL1       -0.2287
     37 C         130.7850  140.6643  156.1968 C.ar    1  UNL1        0.1008
     38 C         126.7671  136.3011  158.7876 C.3     1  UNL1        0.0382
     39 C         127.5124  137.4618  158.1982 C.ar    1  UNL1        0.0076
     40 C         126.9300  138.8009  157.8552 C.ar    1  UNL1        0.0027
     41 C         128.0287  139.6539  157.2934 C.ar    1  UNL1        0.0067
     42 C         129.2899  138.8420  157.2892 C.ar    1  UNL1        0.0306
     43 S         128.9708  137.4871  157.8485 S.2     1  UNL1       -0.0912
@<TRIPOS>BOND
     1    38    39    1
     2    39    40   ar
     3    40    41   ar
     4    41    42   ar
     5    42    32    1
     6    32    33   ar
     7    33    34   ar
     8    34    35   ar
     9    35    26    1
    10    26    27    1
    11    27    28    1
    12    28    25    1
    13    25     1    1
    14     1     2   am
    15     2     3    2
    16     2     5    1
    17     5     6   ar
    18     6     7   ar
    19     7     8   ar
    20     8    11    1
    21    11    12   ar
    22    12    13   ar
    23    13    14   ar
    24    14    15   ar
    25    15    23    1
    26    23    24    3
    27    15    16   ar
    28    16    17   ar
    29    17    20    1
    30    20    21    1
    31    20    22    1
    32    17    18   ar
    33    18    19   ar
    34     8     9   ar
    35     9    10   ar
    36    28    29    1
    37    29    30    1
    38    30    31    2
    39    35    36   ar
    40    36    37   ar
    41    42    43   ar
    42    43    39   ar
    43    37    32   ar
    44    30    26   am
    45    10     5   ar
    46    19    11   ar
    47    18    13   ar
    48     1     4    1
@<TRIPOS>MOLECULE
*****
 43 48 0 0 0
SMALL
GASTEIGER

@<TRIPOS>ATOM
      1 N         141.5919  139.2076  157.0914 N.am    1  UNL1       -0.2975
      2 C         140.4549  138.9409  158.0327 C.2     1  UNL1        0.2459
      3 O         139.2265  138.2326  157.5434 O.2     1  UNL1       -0.2701
      4 H         142.3981  139.6724  157.4126 H       1  UNL1        0.1499
      5 C         140.5463  139.3824  159.4633 C.ar    1  UNL1        0.0534
      6 C         140.9928  138.4156  160.5196 C.ar    1  UNL1        0.0047
      7 C         141.0842  138.8571  161.9503 C.ar    1  UNL1        0.0048
      8 C         140.7291  140.2655  162.3246 C.ar    1  UNL1        0.0536
      9 C         140.2826  141.2324  161.2683 C.ar    1  UNL1        0.0048
     10 C         140.1911  140.7909  159.8376 C.ar    1  UNL1        0.0047
     11 C         140.8205  140.7071  163.7552 C.ar    1  UNL1        0.2296
     12 N         140.2272  141.9586  164.3313 N.ar    1  UNL1       -0.2082
     13 C         140.5613  141.9996  165.7930 C.ar    1  UNL1        0.1192
     14 C         140.2406  142.9951  166.8682 C.ar    1  UNL1        0.0326
     15 C         140.7197  142.7644  168.2709 C.ar    1  UNL1        0.0698
     16 C         141.5194  141.5384  168.5982 C.ar    1  UNL1        0.0091
     17 C         141.8401  140.5429  167.5230 C.ar    1  UNL1        0.0143
     18 C         141.3611  140.7735  166.1203 C.ar    1  UNL1        0.1607
     19 O         141.5212  139.9747  164.8609 O.2     1  UNL1       -0.4349
     20 C         142.6398  139.3168  167.8503 C.3     1  UNL1        0.0254
     21 C         142.6796  138.8012  169.2583 C.3     1  UNL1        0.0048
     22 C         143.3998  138.6064  166.7696 C.3     1  UNL1        0.0048
     23 C         140.3990  143.7599  169.3462 C.1     1  UNL1        0.1005
     24 N         140.0783  144.7553  170.4215 N.1     1  UNL1       -0.1908
     25 C         141.5005  138.7660  155.6608 C.3     1  UNL1        0.1355
     26 N         142.1906  134.9537  155.4252 N.am    1  UNL1       -0.2059
     27 C         142.2983  136.2622  156.1505 C.3     1  UNL1        0.1483
     28 C         141.6270  137.3118  155.3152 C.3     1  UNL1        0.2101
     29 O         141.1044  136.6519  154.0736 O.3     1  UNL1       -0.4345
     30 C         141.4527  135.1945  154.1416 C.2     1  UNL1        0.4098
     31 O         141.1214  134.1596  153.1076 O.2     1  UNL1       -0.2258
     32 C         143.7988  130.9996  156.8498 C.ar    1  UNL1        0.0253
     33 C         144.5937  132.2536  157.0637 C.ar    1  UNL1        0.0049
     34 C         144.0577  133.5716  156.5888 C.ar    1  UNL1        0.0348
     35 C         142.7266  133.6357  155.9001 C.ar    1  UNL1        0.1400
     36 N         141.9317  132.3817  155.6862 N.ar    1  UNL1       -0.2287
     37 C         142.4678  131.0637  156.1611 C.ar    1  UNL1        0.1008
     38 C         145.4944  127.1035  159.9844 C.3     1  UNL1        0.0382
     39 C         145.1142  127.8908  158.7655 C.ar    1  UNL1        0.0076
     40 C         145.2052  127.4161  157.3455 C.ar    1  UNL1        0.0027
     41 C         144.7235  128.5230  156.4550 C.ar    1  UNL1        0.0067
     42 C         144.3348  129.6817  157.3247 C.ar    1  UNL1        0.0306
     43 S         144.5763  129.2909  158.7527 S.2     1  UNL1       -0.0912
@<TRIPOS>BOND
     1    38    39    1
     2    39    40   ar
     3    40    41   ar
     4    41    42   ar
     5    42    32    1
     6    32    33   ar
     7    33    34   ar
     8    34    35   ar
     9    35    26    1
    10    26    27    1
    11    27    28    1
    12    28    25    1
    13    25     1    1
    14     1     2   am
    15     2     3    2
    16     2     5    1
    17     5     6   ar
    18     6     7   ar
    19     7     8   ar
    20     8    11    1
    21    11    12   ar
    22    12    13   ar
    23    13    14   ar
    24    14    15   ar
    25    15    23    1
    26    23    24    3
    27    15    16   ar
    28    16    17   ar
    29    17    20    1
    30    20    21    1
    31    20    22    1
    32    17    18   ar
    33    18    19   ar
    34     8     9   ar
    35     9    10   ar
    36    28    29    1
    37    29    30    1
    38    30    31    2
    39    35    36   ar
    40    36    37   ar
    41    42    43   ar
    42    43    39   ar
    43    37    32   ar
    44    30    26   am
    45    10     5   ar
    46    19    11   ar
    47    18    13   ar
    48     1     4    1
@<TRIPOS>MOLECULE
*****
 43 48 0 0 0
SMALL
GASTEIGER

@<TRIPOS>ATOM
      1 N         140.3163  138.9764  154.4318 N.am    1  UNL1       -0.2975
      2 C         141.4739  138.6399  155.3244 C.2     1  UNL1        0.2459
      3 O         142.2891  139.7375  155.9413 O.2     1  UNL1       -0.2701
      4 H         139.7813  138.2560  154.0269 H       1  UNL1        0.1499
      5 C         141.8161  137.2057  155.6001 C.ar    1  UNL1        0.0534
      6 C         142.7365  136.8587  156.7326 C.ar    1  UNL1        0.0047
      7 C         143.0788  135.4245  157.0084 C.ar    1  UNL1        0.0048
      8 C         142.5007  134.3374  156.1517 C.ar    1  UNL1        0.0536
      9 C         141.5804  134.6845  155.0192 C.ar    1  UNL1        0.0048
     10 C         141.2381  136.1186  154.7434 C.ar    1  UNL1        0.0047
     11 C         142.8430  132.9032  156.4274 C.ar    1  UNL1        0.2296
     12 N         143.8483  132.4132  157.4270 N.ar    1  UNL1       -0.2082
     13 C         143.8666  130.9144  157.3693 C.ar    1  UNL1        0.1192
     14 C         144.6600  129.8905  158.1257 C.ar    1  UNL1        0.0326
     15 C         144.4594  128.4303  157.8468 C.ar    1  UNL1        0.0698
     16 C         143.4655  127.9942  156.8116 C.ar    1  UNL1        0.0091
     17 C         142.6721  129.0180  156.0551 C.ar    1  UNL1        0.0143
     18 C         142.8727  130.4782  156.3340 C.ar    1  UNL1        0.1607
     19 O         142.2401  131.7074  155.7519 O.2     1  UNL1       -0.4349
     20 C         141.6782  128.5818  155.0199 C.3     1  UNL1        0.0254
     21 C         142.1493  128.1505  153.6626 C.3     1  UNL1        0.0048
     22 C         140.2131  128.5768  155.3418 C.3     1  UNL1        0.0048
     23 C         145.2528  127.4064  158.6033 C.1     1  UNL1        0.1005
     24 N         146.0461  126.3825  159.3597 N.1     1  UNL1       -0.1908
     25 C         139.9741  140.4106  154.1560 C.3     1  UNL1        0.1355
     26 N         136.3790  141.1624  155.4113 N.am    1  UNL1       -0.2059
     27 C         137.4337  140.1962  154.9597 C.3     1  UNL1        0.1483
     28 C         138.6738  140.9784  154.6431 C.3     1  UNL1        0.2101
     29 O         138.3856  142.4279  154.8991 O.3     1  UNL1       -0.4345
     30 C         136.9672  142.5417  155.3739 C.2     1  UNL1        0.4098
     31 O         136.2612  143.8117  155.7460 O.2     1  UNL1       -0.2258
     32 C         132.1860  140.1081  156.6594 C.ar    1  UNL1        0.0253
     33 C         132.4136  141.0249  155.4941 C.ar    1  UNL1        0.0049
     34 C         133.8112  141.3763  155.0781 C.ar    1  UNL1        0.0348
     35 C         134.9814  140.8110  155.8273 C.ar    1  UNL1        0.1400
     36 N         134.7538  139.8942  156.9926 N.ar    1  UNL1       -0.2287
     37 C         133.3561  139.5428  157.4086 C.ar    1  UNL1        0.1008
     38 C         128.0948  137.8038  159.0744 C.3     1  UNL1        0.0382
     39 C         128.9079  138.6976  158.1855 C.ar    1  UNL1        0.0076
     40 C         128.3674  139.7344  157.2457 C.ar    1  UNL1        0.0027
     41 C         129.5297  140.3889  156.5597 C.ar    1  UNL1        0.0067
     42 C         130.7884  139.7567  157.0754 C.ar    1  UNL1        0.0306
     43 S         130.4040  138.7114  158.0802 S.2     1  UNL1       -0.0912
@<TRIPOS>BOND
     1    38    39    1
     2    39    40   ar
     3    40    41   ar
     4    41    42   ar
     5    42    32    1
     6    32    33   ar
     7    33    34   ar
     8    34    35   ar
     9    35    26    1
    10    26    27    1
    11    27    28    1
    12    28    25    1
    13    25     1    1
    14     1     2   am
    15     2     3    2
    16     2     5    1
    17     5     6   ar
    18     6     7   ar
    19     7     8   ar
    20     8    11    1
    21    11    12   ar
    22    12    13   ar
    23    13    14   ar
    24    14    15   ar
    25    15    23    1
    26    23    24    3
    27    15    16   ar
    28    16    17   ar
    29    17    20    1
    30    20    21    1
    31    20    22    1
    32    17    18   ar
    33    18    19   ar
    34     8     9   ar
    35     9    10   ar
    36    28    29    1
    37    29    30    1
    38    30    31    2
    39    35    36   ar
    40    36    37   ar
    41    42    43   ar
    42    43    39   ar
    43    37    32   ar
    44    30    26   am
    45    10     5   ar
    46    19    11   ar
    47    18    13   ar
    48     1     4    1
