@<TRIPOS>MOLECULE
*****
 42 47 0 0 0
SMALL
GASTEIGER

@<TRIPOS>ATOM
      1 C         138.0014  142.8973  162.8003 C.3     1  UNL1        0.1200
      2 C         138.2206  142.5637  161.3544 C.3     1  UNL1        0.0311
      3 C         138.1784  141.1349  160.8996 C.3     1  UNL1        0.0194
      4 C         137.9170  140.0397  161.8907 C.3     1  UNL1        0.0700
      5 C         137.6978  140.3734  163.3366 C.3     1  UNL1        0.0194
      6 C         137.7400  141.8022  163.7914 C.3     1  UNL1        0.0311
      7 C         137.9308  140.8078  162.1872 C.3     1  UNL1        0.1563
      8 O         137.9690  142.0997  162.5985 O.3     1  UNL1       -0.3547
      9 C         138.0436  144.3261  163.2550 C.3     1  UNL1        0.1661
     10 O         137.1729  145.3508  162.5903 O.3     1  UNL1       -0.3793
     11 H         137.3215  146.2168  163.0012 H       1  UNL1        0.2106
     12 C         138.9566  144.7302  164.3746 C.3     1  UNL1        0.1654
     13 O         138.4028  145.4377  165.5757 O.3     1  UNL1       -0.3774
     14 H         137.4458  145.5548  165.4692 H       1  UNL1        0.2109
     15 C         140.7819  141.6870  167.1417 C.ar    1  UNL1        0.2250
     16 C         142.2486  141.3835  167.0601 C.ar    1  UNL1        0.0593
     17 C         143.1069  142.0944  166.0561 C.ar    1  UNL1        0.0254
     18 C         142.4985  143.1088  165.1338 C.ar    1  UNL1        0.0991
     19 N         143.3567  143.8198  164.1298 N.ar    1  UNL1       -0.2400
     20 C         142.7483  144.8341  163.2074 C.ar    1  UNL1        0.1282
     21 C         141.2815  145.1376  163.2890 C.ar    1  UNL1        0.1590
     22 F         140.6731  146.1520  162.3666 F       1  UNL1       -0.2027
     23 C         140.4233  144.4267  164.2930 C.ar    1  UNL1        0.0549
     24 C         141.0318  143.4123  165.2154 C.ar    1  UNL1        0.1025
     25 N         140.1735  142.7013  166.2193 N.ar    1  UNL1       -0.2103
     26 C         140.5583  140.2493  169.2941 C.3     1  UNL1        0.2542
     27 O         139.9236  140.9760  168.1457 O.3     1  UNL1       -0.4561
     28 N         137.8748  138.6110  161.4360 N.3     1  UNL1       -0.2926
     29 H         137.3386  138.5939  160.5684 H       1  UNL1        0.1236
     30 C         139.1519  137.8704  161.1704 C.3     1  UNL1        0.1152
     31 C         140.3505  138.1061  162.0408 C.ar    1  UNL1        0.0765
     32 C         140.5261  137.3178  163.3049 C.ar    1  UNL1        0.0193
     33 C         141.7247  137.5536  164.1754 C.ar    1  UNL1        0.0411
     34 C         142.7478  138.5776  163.7818 C.ar    1  UNL1        0.1708
     35 C         142.5722  139.3658  162.5178 C.ar    1  UNL1        0.1682
     36 N         141.3735  139.1301  161.6473 N.ar    1  UNL1       -0.2304
     37 N         143.5952  140.3898  162.1242 N.am    1  UNL1       -0.2639
     38 C         144.7938  140.6255  162.9947 C.2     1  UNL1        0.2718
     39 O         145.8168  141.6495  162.6011 O.2     1  UNL1       -0.2707
     40 C         144.9694  139.8373  164.2588 C.3     1  UNL1        0.2898
     41 O         143.9464  138.8133  164.6523 O.3     1  UNL1       -0.4628
     42 H         143.4799  140.9072  161.2946 H       1  UNL1        0.1565
@<TRIPOS>BOND
     1    26    27    1
     2    27    15    1
     3    15    16   ar
     4    16    17   ar
     5    17    18   ar
     6    18    19   ar
     7    19    20   ar
     8    20    21   ar
     9    21    22    1
    10    21    23   ar
    11    23    12    1
    12    12    13    1
    13    12     9    1
    14     9    10    1
    15     9     1    1
    16     1     2    1
    17     2     3    1
    18     3     4    1
    19     4    28    1
    20    28    30    1
    21    30    31    1
    22    31    32   ar
    23    32    33   ar
    24    33    34   ar
    25    34    35   ar
    26    35    36   ar
    27    35    37    1
    28    37    38   am
    29    38    39    2
    30    38    40    1
    31    40    41    1
    32     4     5    1
    33     5     6    1
    34     4     7    1
    35     7     8    1
    36    23    24   ar
    37    24    25   ar
    38    25    15   ar
    39    24    18   ar
    40     6     1    1
    41     8     1    1
    42    36    31   ar
    43    41    34    1
    44    13    14    1
    45    10    11    1
    46    28    29    1
    47    37    42    1
@<TRIPOS>MOLECULE
*****
 42 47 0 0 0
SMALL
GASTEIGER

@<TRIPOS>ATOM
      1 C         143.9375  142.6548  163.1402 C.3     1  UNL1        0.1200
      2 C         143.3254  143.3029  164.3466 C.3     1  UNL1        0.0311
      3 C         142.3290  144.4114  164.1781 C.3     1  UNL1        0.0194
      4 C         141.9446  144.8718  162.8031 C.3     1  UNL1        0.0700
      5 C         142.5567  144.2236  161.5968 C.3     1  UNL1        0.0194
      6 C         143.5532  143.1151  161.7654 C.3     1  UNL1        0.0311
      7 C         142.4950  144.2608  162.8454 C.3     1  UNL1        0.1563
      8 O         143.3959  143.2585  162.9977 O.3     1  UNL1       -0.3547
      9 C         144.9339  141.5463  163.3088 C.3     1  UNL1        0.1661
     10 O         146.4004  141.8283  163.1682 O.3     1  UNL1       -0.3793
     11 H         146.9018  141.0094  163.3060 H       1  UNL1        0.2106
     12 C         144.4637  140.1558  163.6179 C.3     1  UNL1        0.1654
     13 O         145.2662  139.2788  164.5328 O.3     1  UNL1       -0.3774
     14 H         146.0526  139.7600  164.8344 H       1  UNL1        0.2109
     15 C         140.8328  139.5330  166.2021 C.ar    1  UNL1        0.2250
     16 C         139.5603  139.0195  165.5964 C.ar    1  UNL1        0.0593
     17 C         139.4980  138.7136  164.1292 C.ar    1  UNL1        0.0254
     18 C         140.7083  138.9211  163.2678 C.ar    1  UNL1        0.0991
     19 N         140.6461  138.6152  161.8007 N.ar    1  UNL1       -0.2400
     20 C         141.8564  138.8228  160.9393 C.ar    1  UNL1        0.1282
     21 C         143.1290  139.3363  161.5450 C.ar    1  UNL1        0.1590
     22 F         144.3393  139.5439  160.6836 F       1  UNL1       -0.2027
     23 C         143.1912  139.6423  163.0122 C.ar    1  UNL1        0.0549
     24 C         141.9808  139.4347  163.8736 C.ar    1  UNL1        0.1025
     25 N         142.0431  139.7406  165.3407 N.ar    1  UNL1       -0.2103
     26 C         139.6371  140.1516  168.4242 C.3     1  UNL1        0.2542
     27 O         140.8950  139.8390  167.6693 O.3     1  UNL1       -0.4561
     28 N         140.9482  145.9802  162.6346 N.3     1  UNL1       -0.2926
     29 H         141.0965  146.3705  161.7039 H       1  UNL1        0.1236
     30 C         139.4807  145.6943  162.7555 C.3     1  UNL1        0.1152
     31 C         138.9627  144.3101  162.4998 C.ar    1  UNL1        0.0765
     32 C         138.4151  143.4930  163.6324 C.ar    1  UNL1        0.0193
     33 C         137.8972  142.1088  163.3767 C.ar    1  UNL1        0.0411
     34 C         137.9267  141.5414  161.9885 C.ar    1  UNL1        0.1708
     35 C         138.4741  142.3584  160.8559 C.ar    1  UNL1        0.1682
     36 N         138.9922  143.7427  161.1115 N.ar    1  UNL1       -0.2304
     37 N         138.5036  141.7910  159.4676 N.am    1  UNL1       -0.2639
     38 C         137.9856  140.4068  159.2120 C.2     1  UNL1        0.2718
     39 O         138.0151  139.8394  157.8237 O.2     1  UNL1       -0.2707
     40 C         137.4381  139.5897  160.3446 C.3     1  UNL1        0.2898
     41 O         137.4086  140.1571  161.7329 O.3     1  UNL1       -0.4628
     42 H         138.8630  142.3273  158.7243 H       1  UNL1        0.1565
@<TRIPOS>BOND
     1    26    27    1
     2    27    15    1
     3    15    16   ar
     4    16    17   ar
     5    17    18   ar
     6    18    19   ar
     7    19    20   ar
     8    20    21   ar
     9    21    22    1
    10    21    23   ar
    11    23    12    1
    12    12    13    1
    13    12     9    1
    14     9    10    1
    15     9     1    1
    16     1     2    1
    17     2     3    1
    18     3     4    1
    19     4    28    1
    20    28    30    1
    21    30    31    1
    22    31    32   ar
    23    32    33   ar
    24    33    34   ar
    25    34    35   ar
    26    35    36   ar
    27    35    37    1
    28    37    38   am
    29    38    39    2
    30    38    40    1
    31    40    41    1
    32     4     5    1
    33     5     6    1
    34     4     7    1
    35     7     8    1
    36    23    24   ar
    37    24    25   ar
    38    25    15   ar
    39    24    18   ar
    40     6     1    1
    41     8     1    1
    42    36    31   ar
    43    41    34    1
    44    13    14    1
    45    10    11    1
    46    28    29    1
    47    37    42    1
@<TRIPOS>MOLECULE
*****
 42 47 0 0 0
SMALL
GASTEIGER

@<TRIPOS>ATOM
      1 C         142.0654  138.4619  163.6196 C.3     1  UNL1        0.1200
      2 C         142.3214  138.9960  162.2415 C.3     1  UNL1        0.0311
      3 C         143.5126  139.8708  161.9855 C.3     1  UNL1        0.0194
      4 C         144.4480  140.2116  163.1076 C.3     1  UNL1        0.0700
      5 C         144.1920  139.6775  164.4857 C.3     1  UNL1        0.0194
      6 C         143.0007  138.8026  164.7417 C.3     1  UNL1        0.0311
      7 C         143.8085  139.7285  163.2964 C.3     1  UNL1        0.1563
      8 O         142.7313  138.9375  163.5280 O.3     1  UNL1       -0.3547
      9 C         140.8742  137.5871  163.8757 C.3     1  UNL1        0.1661
     10 O         140.9631  136.1093  163.6340 O.3     1  UNL1       -0.3793
     11 H         140.1124  135.6951  163.8472 H       1  UNL1        0.2106
     12 C         139.5940  138.1899  164.3734 C.3     1  UNL1        0.1654
     13 O         138.9842  137.7034  165.6546 O.3     1  UNL1       -0.3774
     14 H         139.5394  137.0029  166.0314 H       1  UNL1        0.2109
     15 C         139.7038  142.4322  165.8703 C.ar    1  UNL1        0.2250
     16 C         139.0334  143.5216  165.0868 C.ar    1  UNL1        0.0593
     17 C         138.3264  143.1968  163.8044 C.ar    1  UNL1        0.0254
     18 C         138.2898  141.7828  163.3054 C.ar    1  UNL1        0.0991
     19 N         137.5828  141.4580  162.0229 N.ar    1  UNL1       -0.2400
     20 C         137.5462  140.0440  161.5239 C.ar    1  UNL1        0.1282
     21 C         138.2166  138.9545  162.3074 C.ar    1  UNL1        0.1590
     22 F         138.1800  137.5405  161.8085 F       1  UNL1       -0.2027
     23 C         138.9236  139.2793  163.5899 C.ar    1  UNL1        0.0549
     24 C         138.9602  140.6934  164.0889 C.ar    1  UNL1        0.1025
     25 N         139.6672  141.0182  165.3713 N.ar    1  UNL1       -0.2103
     26 C         140.3862  141.7802  168.2909 C.3     1  UNL1        0.2542
     27 O         140.4108  142.7570  167.1528 O.3     1  UNL1       -0.4561
     28 N         145.6392  141.0865  162.8516 N.3     1  UNL1       -0.2926
     29 H         145.8141  141.0592  161.8471 H       1  UNL1        0.1236
     30 C         145.6059  142.5333  163.2462 C.3     1  UNL1        0.1152
     31 C         144.3388  143.3221  163.0977 C.ar    1  UNL1        0.0765
     32 C         143.6333  143.8440  164.3142 C.ar    1  UNL1        0.0193
     33 C         142.3662  144.6329  164.1657 C.ar    1  UNL1        0.0411
     34 C         141.8045  144.9000  162.8007 C.ar    1  UNL1        0.1708
     35 C         142.5100  144.3781  161.5842 C.ar    1  UNL1        0.1682
     36 N         143.7772  143.5892  161.7327 N.ar    1  UNL1       -0.2304
     37 N         141.9484  144.6452  160.2192 N.am    1  UNL1       -0.2639
     38 C         140.6813  145.4341  160.0707 C.2     1  UNL1        0.2718
     39 O         140.1197  145.7011  158.7057 O.2     1  UNL1       -0.2707
     40 C         139.9758  145.9560  161.2873 C.3     1  UNL1        0.2898
     41 O         140.5374  145.6889  162.6523 O.3     1  UNL1       -0.4628
     42 H         142.4114  144.3027  159.4207 H       1  UNL1        0.1565
@<TRIPOS>BOND
     1    26    27    1
     2    27    15    1
     3    15    16   ar
     4    16    17   ar
     5    17    18   ar
     6    18    19   ar
     7    19    20   ar
     8    20    21   ar
     9    21    22    1
    10    21    23   ar
    11    23    12    1
    12    12    13    1
    13    12     9    1
    14     9    10    1
    15     9     1    1
    16     1     2    1
    17     2     3    1
    18     3     4    1
    19     4    28    1
    20    28    30    1
    21    30    31    1
    22    31    32   ar
    23    32    33   ar
    24    33    34   ar
    25    34    35   ar
    26    35    36   ar
    27    35    37    1
    28    37    38   am
    29    38    39    2
    30    38    40    1
    31    40    41    1
    32     4     5    1
    33     5     6    1
    34     4     7    1
    35     7     8    1
    36    23    24   ar
    37    24    25   ar
    38    25    15   ar
    39    24    18   ar
    40     6     1    1
    41     8     1    1
    42    36    31   ar
    43    41    34    1
    44    13    14    1
    45    10    11    1
    46    28    29    1
    47    37    42    1
@<TRIPOS>MOLECULE
*****
 42 47 0 0 0
SMALL
GASTEIGER

@<TRIPOS>ATOM
      1 C         142.6095  144.0700  160.7521 C.3     1  UNL1        0.1200
      2 C         143.3872  142.9963  160.0506 C.3     1  UNL1        0.0311
      3 C         144.4702  142.2571  160.7790 C.3     1  UNL1        0.0194
      4 C         144.7756  142.5916  162.2090 C.3     1  UNL1        0.0700
      5 C         143.9979  143.6654  162.9105 C.3     1  UNL1        0.0194
      6 C         142.9148  144.4046  162.1821 C.3     1  UNL1        0.0311
      7 C         144.1730  143.0240  161.8513 C.3     1  UNL1        0.1563
      8 O         143.1937  143.6924  161.1927 O.3     1  UNL1       -0.3547
      9 C         141.5265  144.8092  160.0237 C.3     1  UNL1        0.1661
     10 O         141.8586  146.0423  159.2368 O.3     1  UNL1       -0.3793
     11 H         141.0508  146.3945  158.8314 H       1  UNL1        0.2106
     12 C         140.1113  144.3154  160.0821 C.3     1  UNL1        0.1654
     13 O         139.3470  144.0774  158.8136 O.3     1  UNL1       -0.3774
     14 H         139.9095  144.2900  158.0525 H       1  UNL1        0.2109
     15 C         138.3188  140.2841  160.9688 C.ar    1  UNL1        0.2250
     16 C         137.6679  140.0282  162.2958 C.ar    1  UNL1        0.0593
     17 C         137.6146  141.1161  163.3272 C.ar    1  UNL1        0.0254
     18 C         138.2121  142.4598  163.0317 C.ar    1  UNL1        0.0991
     19 N         138.1587  143.5476  164.0631 N.ar    1  UNL1       -0.2400
     20 C         138.7562  144.8913  163.7675 C.ar    1  UNL1        0.1282
     21 C         139.4071  145.1473  162.4405 C.ar    1  UNL1        0.1590
     22 F         140.0046  146.4910  162.1450 F       1  UNL1       -0.2027
     23 C         139.4604  144.0594  161.4091 C.ar    1  UNL1        0.0549
     24 C         138.8629  142.7157  161.7047 C.ar    1  UNL1        0.1025
     25 N         138.9163  141.6279  160.6733 N.ar    1  UNL1       -0.2103
     26 C         139.6657  138.4902  159.6584 C.3     1  UNL1        0.2542
     27 O         138.3721  139.1963  159.9374 O.3     1  UNL1       -0.4561
     28 N         145.8586  141.8524  162.9374 N.3     1  UNL1       -0.2926
     29 H         146.3779  142.5461  163.4756 H       1  UNL1        0.1236
     30 C         145.5041  140.7455  163.8856 C.3     1  UNL1        0.1152
     31 C         144.3159  139.8728  163.6090 C.ar    1  UNL1        0.0765
     32 C         144.3248  138.9450  162.4304 C.ar    1  UNL1        0.0193
     33 C         143.1366  138.0723  162.1538 C.ar    1  UNL1        0.0411
     34 C         141.9394  138.1274  163.0559 C.ar    1  UNL1        0.1708
     35 C         141.9305  139.0551  164.2345 C.ar    1  UNL1        0.1682
     36 N         143.1187  139.9279  164.5111 N.ar    1  UNL1       -0.2304
     37 N         140.7333  139.1102  165.1366 N.am    1  UNL1       -0.2639
     38 C         139.5451  138.2375  164.8600 C.2     1  UNL1        0.2718
     39 O         138.3479  138.2925  165.7621 O.2     1  UNL1       -0.2707
     40 C         139.5540  137.3097  163.6813 C.3     1  UNL1        0.2898
     41 O         140.7512  137.2546  162.7793 O.3     1  UNL1       -0.4628
     42 H         140.7274  139.7191  165.9101 H       1  UNL1        0.1565
@<TRIPOS>BOND
     1    26    27    1
     2    27    15    1
     3    15    16   ar
     4    16    17   ar
     5    17    18   ar
     6    18    19   ar
     7    19    20   ar
     8    20    21   ar
     9    21    22    1
    10    21    23   ar
    11    23    12    1
    12    12    13    1
    13    12     9    1
    14     9    10    1
    15     9     1    1
    16     1     2    1
    17     2     3    1
    18     3     4    1
    19     4    28    1
    20    28    30    1
    21    30    31    1
    22    31    32   ar
    23    32    33   ar
    24    33    34   ar
    25    34    35   ar
    26    35    36   ar
    27    35    37    1
    28    37    38   am
    29    38    39    2
    30    38    40    1
    31    40    41    1
    32     4     5    1
    33     5     6    1
    34     4     7    1
    35     7     8    1
    36    23    24   ar
    37    24    25   ar
    38    25    15   ar
    39    24    18   ar
    40     6     1    1
    41     8     1    1
    42    36    31   ar
    43    41    34    1
    44    13    14    1
    45    10    11    1
    46    28    29    1
    47    37    42    1
@<TRIPOS>MOLECULE
*****
 42 47 0 0 0
SMALL
GASTEIGER

@<TRIPOS>ATOM
      1 C         143.7076  139.0736  162.4633 C.3     1  UNL1        0.1200
      2 C         144.0044  139.0161  163.9325 C.3     1  UNL1        0.0311
      3 C         144.6910  140.1679  164.6047 C.3     1  UNL1        0.0194
      4 C         145.0809  141.3774  163.8076 C.3     1  UNL1        0.0700
      5 C         144.7841  141.4349  162.3384 C.3     1  UNL1        0.0194
      6 C         144.0975  140.2830  161.6662 C.3     1  UNL1        0.0311
      7 C         144.7065  140.7709  163.3953 C.3     1  UNL1        0.1563
      8 O         144.0856  139.7294  162.7875 O.3     1  UNL1       -0.3547
      9 C         143.0210  137.9218  161.7911 C.3     1  UNL1        0.1661
     10 O         143.8042  136.9893  160.9153 O.3     1  UNL1       -0.3793
     11 H         143.2139  136.3057  160.5616 H       1  UNL1        0.2106
     12 C         141.5511  137.7025  161.9947 C.3     1  UNL1        0.1654
     13 O         141.0735  136.5601  162.8414 O.3     1  UNL1       -0.3774
     14 H         141.8372  136.0662  163.1786 H       1  UNL1        0.2109
     15 C         138.6949  140.0657  164.5456 C.ar    1  UNL1        0.2250
     16 C         137.7027  140.9887  163.9026 C.ar    1  UNL1        0.0593
     17 C         137.6626  141.1240  162.4093 C.ar    1  UNL1        0.0254
     18 C         138.6146  140.3363  161.5590 C.ar    1  UNL1        0.0991
     19 N         138.5745  140.4716  160.0656 N.ar    1  UNL1       -0.2400
     20 C         139.5265  139.6839  159.2153 C.ar    1  UNL1        0.1282
     21 C         140.5188  138.7608  159.8583 C.ar    1  UNL1        0.1590
     22 F         141.4708  137.9731  159.0080 F       1  UNL1       -0.2027
     23 C         140.5589  138.6255  161.3517 C.ar    1  UNL1        0.0549
     24 C         139.6068  139.4133  162.2020 C.ar    1  UNL1        0.1025
     25 N         139.6469  139.2780  163.6953 N.ar    1  UNL1       -0.2103
     26 C         140.0536  139.8583  166.7504 C.3     1  UNL1        0.2542
     27 O         138.7350  139.9304  166.0390 O.3     1  UNL1       -0.4561
     28 N         145.7675  142.5292  164.4798 N.3     1  UNL1       -0.2926
     29 H         146.3159  143.0041  163.7628 H       1  UNL1        0.1236
     30 C         144.9575  143.5833  165.1745 C.3     1  UNL1        0.1152
     31 C         143.4973  143.7322  164.8654 C.ar    1  UNL1        0.0765
     32 C         142.4814  142.9577  165.6517 C.ar    1  UNL1        0.0193
     33 C         141.0212  143.1066  165.3426 C.ar    1  UNL1        0.0411
     34 C         140.5768  144.0300  164.2472 C.ar    1  UNL1        0.1708
     35 C         141.5925  144.8044  163.4609 C.ar    1  UNL1        0.1682
     36 N         143.0528  144.6556  163.7700 N.ar    1  UNL1       -0.2304
     37 N         141.1481  145.7278  162.3655 N.am    1  UNL1       -0.2639
     38 C         139.6879  145.8767  162.0564 C.2     1  UNL1        0.2718
     39 O         139.2435  146.8000  160.9610 O.2     1  UNL1       -0.2707
     40 C         138.6720  145.1022  162.8428 C.3     1  UNL1        0.2898
     41 O         139.1165  144.1788  163.9382 O.3     1  UNL1       -0.4628
     42 H         141.8148  146.2361  161.8494 H       1  UNL1        0.1565
@<TRIPOS>BOND
     1    26    27    1
     2    27    15    1
     3    15    16   ar
     4    16    17   ar
     5    17    18   ar
     6    18    19   ar
     7    19    20   ar
     8    20    21   ar
     9    21    22    1
    10    21    23   ar
    11    23    12    1
    12    12    13    1
    13    12     9    1
    14     9    10    1
    15     9     1    1
    16     1     2    1
    17     2     3    1
    18     3     4    1
    19     4    28    1
    20    28    30    1
    21    30    31    1
    22    31    32   ar
    23    32    33   ar
    24    33    34   ar
    25    34    35   ar
    26    35    36   ar
    27    35    37    1
    28    37    38   am
    29    38    39    2
    30    38    40    1
    31    40    41    1
    32     4     5    1
    33     5     6    1
    34     4     7    1
    35     7     8    1
    36    23    24   ar
    37    24    25   ar
    38    25    15   ar
    39    24    18   ar
    40     6     1    1
    41     8     1    1
    42    36    31   ar
    43    41    34    1
    44    13    14    1
    45    10    11    1
    46    28    29    1
    47    37    42    1
@<TRIPOS>MOLECULE
*****
 42 47 0 0 0
SMALL
GASTEIGER

@<TRIPOS>ATOM
      1 C         142.5812  139.0119  162.3355 C.3     1  UNL1        0.1200
      2 C         141.1642  138.9234  161.8514 C.3     1  UNL1        0.0311
      3 C         140.0953  138.3840  162.7550 C.3     1  UNL1        0.0194
      4 C         140.4434  137.9331  164.1427 C.3     1  UNL1        0.0700
      5 C         141.8604  138.0216  164.6267 C.3     1  UNL1        0.0194
      6 C         142.9293  138.5610  163.7231 C.3     1  UNL1        0.0311
      7 C         141.0633  138.2216  163.6840 C.3     1  UNL1        0.1563
      8 O         142.0299  138.7093  162.8670 O.3     1  UNL1       -0.3547
      9 C         143.6501  139.5513  161.4319 C.3     1  UNL1        0.1661
     10 O         144.5350  138.6089  160.6710 O.3     1  UNL1       -0.3793
     11 H         145.1668  139.1172  160.1387 H       1  UNL1        0.2106
     12 C         143.8342  141.0331  161.2892 C.3     1  UNL1        0.1654
     13 O         144.1932  141.6193  159.9559 O.3     1  UNL1       -0.3774
     14 H         144.2673  140.9088  159.2998 H       1  UNL1        0.2109
     15 C         140.2320  143.7147  161.5776 C.ar    1  UNL1        0.2250
     16 C         140.0571  144.6103  162.7680 C.ar    1  UNL1        0.0593
     17 C         141.0830  144.6121  163.8624 C.ar    1  UNL1        0.0254
     18 C         142.2837  143.7182  163.7663 C.ar    1  UNL1        0.0991
     19 N         143.3095  143.7200  164.8607 N.ar    1  UNL1       -0.2400
     20 C         144.5103  142.8262  164.7645 C.ar    1  UNL1        0.1282
     21 C         144.6852  141.9305  163.5740 C.ar    1  UNL1        0.1590
     22 F         145.8859  141.0367  163.4779 F       1  UNL1       -0.2027
     23 C         143.6594  141.9287  162.4797 C.ar    1  UNL1        0.0549
     24 C         142.4586  142.8226  162.5758 C.ar    1  UNL1        0.1025
     25 N         141.4327  142.8209  161.4815 N.ar    1  UNL1       -0.2103
     26 C         138.5376  142.4309  160.0840 C.3     1  UNL1        0.2542
     27 O         139.2062  143.7129  160.4832 O.3     1  UNL1       -0.4561
     28 N         139.3745  137.3937  165.0463 N.3     1  UNL1       -0.2926
     29 H         139.8457  136.8419  165.7631 H       1  UNL1        0.1236
     30 C         138.4517  138.3353  165.7617 C.3     1  UNL1        0.1152
     31 C         139.0008  139.5612  166.4292 C.ar    1  UNL1        0.0765
     32 C         139.3882  140.7537  165.6058 C.ar    1  UNL1        0.0193
     33 C         139.9373  141.9796  166.2732 C.ar    1  UNL1        0.0411
     34 C         140.0992  142.0131  167.7641 C.ar    1  UNL1        0.1708
     35 C         139.7118  140.8206  168.5875 C.ar    1  UNL1        0.1682
     36 N         139.1627  139.5947  167.9200 N.ar    1  UNL1       -0.2304
     37 N         139.8737  140.8541  170.0784 N.am    1  UNL1       -0.2639
     38 C         140.4228  142.0800  170.7458 C.2     1  UNL1        0.2718
     39 O         140.5846  142.1135  172.2367 O.2     1  UNL1       -0.2707
     40 C         140.8102  143.2725  169.9224 C.3     1  UNL1        0.2898
     41 O         140.6484  143.2391  168.4316 O.3     1  UNL1       -0.4628
     42 H         139.6194  140.0715  170.6188 H       1  UNL1        0.1565
@<TRIPOS>BOND
     1    26    27    1
     2    27    15    1
     3    15    16   ar
     4    16    17   ar
     5    17    18   ar
     6    18    19   ar
     7    19    20   ar
     8    20    21   ar
     9    21    22    1
    10    21    23   ar
    11    23    12    1
    12    12    13    1
    13    12     9    1
    14     9    10    1
    15     9     1    1
    16     1     2    1
    17     2     3    1
    18     3     4    1
    19     4    28    1
    20    28    30    1
    21    30    31    1
    22    31    32   ar
    23    32    33   ar
    24    33    34   ar
    25    34    35   ar
    26    35    36   ar
    27    35    37    1
    28    37    38   am
    29    38    39    2
    30    38    40    1
    31    40    41    1
    32     4     5    1
    33     5     6    1
    34     4     7    1
    35     7     8    1
    36    23    24   ar
    37    24    25   ar
    38    25    15   ar
    39    24    18   ar
    40     6     1    1
    41     8     1    1
    42    36    31   ar
    43    41    34    1
    44    13    14    1
    45    10    11    1
    46    28    29    1
    47    37    42    1
@<TRIPOS>MOLECULE
*****
 42 47 0 0 0
SMALL
GASTEIGER

@<TRIPOS>ATOM
      1 C         139.4145  143.5656  162.6000 C.3     1  UNL1        0.1200
      2 C         139.0145  142.3497  161.8181 C.3     1  UNL1        0.0311
      3 C         138.4359  141.1601  162.5251 C.3     1  UNL1        0.0194
      4 C         138.2574  141.1863  164.0143 C.3     1  UNL1        0.0700
      5 C         138.6573  142.4023  164.7963 C.3     1  UNL1        0.0194
      6 C         139.2359  143.5920  164.0891 C.3     1  UNL1        0.0311
      7 C         138.5786  141.8622  163.6710 C.3     1  UNL1        0.1563
      8 O         139.1018  142.9380  163.0316 O.3     1  UNL1       -0.3547
      9 C         139.9930  144.7553  161.8930 C.3     1  UNL1        0.1661
     10 O         139.1284  145.9442  161.5947 O.3     1  UNL1       -0.3793
     11 H         139.6537  146.6195  161.1376 H       1  UNL1        0.2106
     12 C         141.4363  144.7561  161.4841 C.3     1  UNL1        0.1654
     13 O         141.8555  145.4346  160.2137 O.3     1  UNL1       -0.3774
     14 H         141.0774  145.8191  159.7805 H       1  UNL1        0.2109
     15 C         143.1238  140.7685  160.2588 C.ar    1  UNL1        0.2250
     16 C         144.1478  140.0908  161.1203 C.ar    1  UNL1        0.0593
     17 C         144.6092  140.7422  162.3902 C.ar    1  UNL1        0.0254
     18 C         144.0467  142.0714  162.7986 C.ar    1  UNL1        0.0991
     19 N         144.5082  142.7229  164.0685 N.ar    1  UNL1       -0.2400
     20 C         143.9457  144.0520  164.4769 C.ar    1  UNL1        0.1282
     21 C         142.9217  144.7298  163.6154 C.ar    1  UNL1        0.1590
     22 F         142.3592  146.0590  164.0239 F       1  UNL1       -0.2027
     23 C         142.4602  144.0784  162.3455 C.ar    1  UNL1        0.0549
     24 C         143.0228  142.7491  161.9371 C.ar    1  UNL1        0.1025
     25 N         142.5613  142.0976  160.6672 N.ar    1  UNL1       -0.2103
     26 C         142.8185  138.6365  158.8058 C.3     1  UNL1        0.2542
     27 O         142.6624  140.1170  158.9889 O.3     1  UNL1       -0.4561
     28 N         137.6788  139.9967  164.7214 N.3     1  UNL1       -0.2926
     29 H         137.0981  139.5044  164.0426 H       1  UNL1        0.1236
     30 C         138.5880  138.9741  165.3359 C.3     1  UNL1        0.1152
     31 C         139.6495  139.4007  166.3060 C.ar    1  UNL1        0.0765
     32 C         141.0980  139.2215  165.9597 C.ar    1  UNL1        0.0193
     33 C         142.1594  139.6481  166.9298 C.ar    1  UNL1        0.0411
     34 C         141.7725  140.2539  168.2464 C.ar    1  UNL1        0.1708
     35 C         140.3241  140.4331  168.5927 C.ar    1  UNL1        0.1682
     36 N         139.2626  140.0065  167.6226 N.ar    1  UNL1       -0.2304
     37 N         139.9372  141.0389  169.9093 N.am    1  UNL1       -0.2639
     38 C         140.9987  141.4655  170.8795 C.2     1  UNL1        0.2718
     39 O         140.6117  142.0714  172.1960 O.2     1  UNL1       -0.2707
     40 C         142.4471  141.2863  170.5331 C.3     1  UNL1        0.2898
     41 O         142.8341  140.6805  169.2166 O.3     1  UNL1       -0.4628
     42 H         138.9866  141.1566  170.1366 H       1  UNL1        0.1565
@<TRIPOS>BOND
     1    26    27    1
     2    27    15    1
     3    15    16   ar
     4    16    17   ar
     5    17    18   ar
     6    18    19   ar
     7    19    20   ar
     8    20    21   ar
     9    21    22    1
    10    21    23   ar
    11    23    12    1
    12    12    13    1
    13    12     9    1
    14     9    10    1
    15     9     1    1
    16     1     2    1
    17     2     3    1
    18     3     4    1
    19     4    28    1
    20    28    30    1
    21    30    31    1
    22    31    32   ar
    23    32    33   ar
    24    33    34   ar
    25    34    35   ar
    26    35    36   ar
    27    35    37    1
    28    37    38   am
    29    38    39    2
    30    38    40    1
    31    40    41    1
    32     4     5    1
    33     5     6    1
    34     4     7    1
    35     7     8    1
    36    23    24   ar
    37    24    25   ar
    38    25    15   ar
    39    24    18   ar
    40     6     1    1
    41     8     1    1
    42    36    31   ar
    43    41    34    1
    44    13    14    1
    45    10    11    1
    46    28    29    1
    47    37    42    1
@<TRIPOS>MOLECULE
*****
 42 47 0 0 0
SMALL
GASTEIGER

@<TRIPOS>ATOM
      1 C         137.7919  140.9882  161.5458 C.3     1  UNL1        0.1200
      2 C         137.5116  140.8581  163.0137 C.3     1  UNL1        0.0311
      3 C         137.6743  142.0450  163.9164 C.3     1  UNL1        0.0194
      4 C         138.1172  143.3620  163.3512 C.3     1  UNL1        0.0700
      5 C         138.3975  143.4921  161.8834 C.3     1  UNL1        0.0194
      6 C         138.2348  142.3052  160.9807 C.3     1  UNL1        0.0311
      7 C         138.0421  142.7398  162.8172 C.3     1  UNL1        0.1563
      8 O         137.8951  141.6667  162.0009 O.3     1  UNL1       -0.3547
      9 C         137.6292  139.8014  160.6431 C.3     1  UNL1        0.1661
     10 O         136.2570  139.2988  160.3049 O.3     1  UNL1       -0.3793
     11 H         136.3298  138.5319  159.7155 H       1  UNL1        0.2106
     12 C         138.8389  139.1170  160.0787 C.3     1  UNL1        0.1654
     13 O         138.9509  138.8908  158.6001 O.3     1  UNL1       -0.3774
     14 H         138.1629  139.2441  158.1583 H       1  UNL1        0.2109
     15 C         143.1124  140.2084  159.1865 C.ar    1  UNL1        0.2250
     16 C         144.2099  139.7504  160.1006 C.ar    1  UNL1        0.0593
     17 C         143.8829  138.9286  161.3121 C.ar    1  UNL1        0.0254
     18 C         142.4585  138.5648  161.6095 C.ar    1  UNL1        0.0991
     19 N         142.1315  137.7430  162.8210 N.ar    1  UNL1       -0.2400
     20 C         140.7070  137.3792  163.1184 C.ar    1  UNL1        0.1282
     21 C         139.6094  137.8372  162.2042 C.ar    1  UNL1        0.1590
     22 F         138.1850  137.4734  162.5016 F       1  UNL1       -0.2027
     23 C         139.9364  138.6590  160.9928 C.ar    1  UNL1        0.0549
     24 C         141.3609  139.0228  160.6954 C.ar    1  UNL1        0.1025
     25 N         141.6879  139.8446  159.4839 N.ar    1  UNL1       -0.2103
     26 C         144.5661  140.6215  157.0732 C.3     1  UNL1        0.2542
     27 O         143.4393  141.0303  157.9750 O.3     1  UNL1       -0.4561
     28 N         138.2799  144.5489  164.2539 N.3     1  UNL1       -0.2926
     29 H         137.4688  144.5618  164.8723 H       1  UNL1        0.1236
     30 C         139.4930  144.6654  165.1285 C.3     1  UNL1        0.1152
     31 C         140.8387  144.2633  164.6018 C.ar    1  UNL1        0.0765
     32 C         141.6197  145.2096  163.7388 C.ar    1  UNL1        0.0193
     33 C         142.9653  144.8076  163.2121 C.ar    1  UNL1        0.0411
     34 C         143.5301  143.4592  163.5483 C.ar    1  UNL1        0.1708
     35 C         142.7492  142.5129  164.4112 C.ar    1  UNL1        0.1682
     36 N         141.4034  142.9150  164.9379 N.ar    1  UNL1       -0.2304
     37 N         143.3139  141.1646  164.7474 N.am    1  UNL1       -0.2639
     38 C         144.6596  140.7626  164.2207 C.2     1  UNL1        0.2718
     39 O         145.2244  139.4142  164.5569 O.2     1  UNL1       -0.2707
     40 C         145.4406  141.7089  163.3577 C.3     1  UNL1        0.2898
     41 O         144.8759  143.0572  163.0215 O.3     1  UNL1       -0.4628
     42 H         142.8014  140.5435  165.3137 H       1  UNL1        0.1565
@<TRIPOS>BOND
     1    26    27    1
     2    27    15    1
     3    15    16   ar
     4    16    17   ar
     5    17    18   ar
     6    18    19   ar
     7    19    20   ar
     8    20    21   ar
     9    21    22    1
    10    21    23   ar
    11    23    12    1
    12    12    13    1
    13    12     9    1
    14     9    10    1
    15     9     1    1
    16     1     2    1
    17     2     3    1
    18     3     4    1
    19     4    28    1
    20    28    30    1
    21    30    31    1
    22    31    32   ar
    23    32    33   ar
    24    33    34   ar
    25    34    35   ar
    26    35    36   ar
    27    35    37    1
    28    37    38   am
    29    38    39    2
    30    38    40    1
    31    40    41    1
    32     4     5    1
    33     5     6    1
    34     4     7    1
    35     7     8    1
    36    23    24   ar
    37    24    25   ar
    38    25    15   ar
    39    24    18   ar
    40     6     1    1
    41     8     1    1
    42    36    31   ar
    43    41    34    1
    44    13    14    1
    45    10    11    1
    46    28    29    1
    47    37    42    1
@<TRIPOS>MOLECULE
*****
 42 47 0 0 0
SMALL
GASTEIGER

@<TRIPOS>ATOM
      1 C         142.6229  144.1039  160.6429 C.3     1  UNL1        0.1200
      2 C         142.9091  144.4255  162.0799 C.3     1  UNL1        0.0311
      3 C         143.9722  143.6695  162.8202 C.3     1  UNL1        0.0194
      4 C         144.7493  142.5920  162.1237 C.3     1  UNL1        0.0700
      5 C         144.4631  142.2704  160.6868 C.3     1  UNL1        0.0194
      6 C         143.3999  143.0264  159.9464 C.3     1  UNL1        0.0311
      7 C         144.1763  142.9790  161.6766 C.3     1  UNL1        0.1563
      8 O         143.2150  143.6625  161.0071 O.3     1  UNL1       -0.3547
      9 C         141.5598  144.8599  159.9026 C.3     1  UNL1        0.1661
     10 O         141.9208  145.6731  158.6949 O.3     1  UNL1       -0.3793
     11 H         141.1231  146.0943  158.3385 H       1  UNL1        0.2106
     12 C         140.1355  144.8027  160.3698 C.3     1  UNL1        0.1654
     13 O         139.4384  146.0571  160.8062 O.3     1  UNL1       -0.3774
     14 H         140.0454  146.8094  160.7250 H       1  UNL1        0.2109
     15 C         138.8115  143.0560  164.3000 C.ar    1  UNL1        0.2250
     16 C         138.0844  141.7444  164.3308 C.ar    1  UNL1        0.0593
     17 C         137.7986  141.0150  163.0516 C.ar    1  UNL1        0.0254
     18 C         138.2399  141.5972  161.7416 C.ar    1  UNL1        0.0991
     19 N         137.9541  140.8679  160.4624 N.ar    1  UNL1       -0.2400
     20 C         138.3954  141.4501  159.1524 C.ar    1  UNL1        0.1282
     21 C         139.1226  142.7617  159.1215 C.ar    1  UNL1        0.1590
     22 F         139.5639  143.3439  157.8114 F       1  UNL1       -0.2027
     23 C         139.4084  143.4911  160.4007 C.ar    1  UNL1        0.0549
     24 C         138.9670  142.9088  161.7108 C.ar    1  UNL1        0.1025
     25 N         139.2528  143.6382  162.9899 N.ar    1  UNL1       -0.2103
     26 C         138.4041  145.0825  165.8739 C.3     1  UNL1        0.2542
     27 O         139.0973  143.7854  165.5792 O.3     1  UNL1       -0.4561
     28 N         145.8124  141.8360  162.8641 N.3     1  UNL1       -0.2926
     29 H         146.3530  142.5246  163.3875 H       1  UNL1        0.1236
     30 C         145.4286  140.7584  163.8344 C.3     1  UNL1        0.1152
     31 C         144.2365  139.8909  163.5588 C.ar    1  UNL1        0.0765
     32 C         144.2407  138.9625  162.3805 C.ar    1  UNL1        0.0193
     33 C         143.0485  138.0950  162.1049 C.ar    1  UNL1        0.0411
     34 C         141.8520  138.1557  163.0075 C.ar    1  UNL1        0.1708
     35 C         141.8477  139.0840  164.1858 C.ar    1  UNL1        0.1682
     36 N         143.0400  139.9516  164.4614 N.ar    1  UNL1       -0.2304
     37 N         140.6512  139.1447  165.0884 N.am    1  UNL1       -0.2639
     38 C         139.4590  138.2772  164.8128 C.2     1  UNL1        0.2718
     39 O         138.2625  138.3379  165.7154 O.2     1  UNL1       -0.2707
     40 C         139.4633  137.3488  163.6345 C.3     1  UNL1        0.2898
     41 O         140.6598  137.2881  162.7319 O.3     1  UNL1       -0.4628
     42 H         140.6484  139.7540  165.8617 H       1  UNL1        0.1565
@<TRIPOS>BOND
     1    26    27    1
     2    27    15    1
     3    15    16   ar
     4    16    17   ar
     5    17    18   ar
     6    18    19   ar
     7    19    20   ar
     8    20    21   ar
     9    21    22    1
    10    21    23   ar
    11    23    12    1
    12    12    13    1
    13    12     9    1
    14     9    10    1
    15     9     1    1
    16     1     2    1
    17     2     3    1
    18     3     4    1
    19     4    28    1
    20    28    30    1
    21    30    31    1
    22    31    32   ar
    23    32    33   ar
    24    33    34   ar
    25    34    35   ar
    26    35    36   ar
    27    35    37    1
    28    37    38   am
    29    38    39    2
    30    38    40    1
    31    40    41    1
    32     4     5    1
    33     5     6    1
    34     4     7    1
    35     7     8    1
    36    23    24   ar
    37    24    25   ar
    38    25    15   ar
    39    24    18   ar
    40     6     1    1
    41     8     1    1
    42    36    31   ar
    43    41    34    1
    44    13    14    1
    45    10    11    1
    46    28    29    1
    47    37    42    1
