@<TRIPOS>MOLECULE
*****
 33 37 0 0 0
SMALL
GASTEIGER

@<TRIPOS>ATOM
      1 C         139.8529  140.0298  167.6833 C.ar    1  UNL1        0.0004
      2 C         138.4716  139.5046  167.4264 C.ar    1  UNL1        0.0031
      3 C         138.1715  138.7766  166.1497 C.ar    1  UNL1        0.0370
      4 C         139.2527  138.5739  165.1299 C.ar    1  UNL1        0.1415
      5 C         140.6340  139.0992  165.3869 C.ar    1  UNL1        0.0699
      6 C         140.9341  139.8271  166.6636 C.ar    1  UNL1        0.0061
      7 C         141.8478  139.0066  164.5106 C.ar    1  UNL1        0.1718
      8 N         143.1832  139.5779  164.8853 N.ar    1  UNL1       -0.1258
      9 N         144.1408  139.2903  163.7671 N.ar    1  UNL1       -0.0913
     10 C         143.3972  138.5412  162.7013 C.ar    1  UNL1        0.3249
     11 N         141.9801  138.3659  163.1607 N.ar    1  UNL1       -0.2613
     12 C         140.9313  137.6595  162.3539 C.3     1  UNL1        0.1592
     13 C         139.4911  137.4193  162.6976 C.3     1  UNL1        0.2299
     14 O         138.7441  137.8263  163.9331 O.3     1  UNL1       -0.4733
     15 C         140.4281  144.4851  170.2948 C.3     1  UNL1        0.0521
     16 C         140.4406  142.9855  170.2658 C.ar    1  UNL1        0.0594
     17 C         140.1405  142.2575  168.9891 C.ar    1  UNL1        0.0147
     18 C         140.1530  140.7578  168.9601 C.ar    1  UNL1        0.0027
     19 C         140.4656  139.9861  170.2078 C.ar    1  UNL1        0.0207
     20 C         140.7658  140.7140  171.4845 C.ar    1  UNL1        0.0984
     21 N         140.7533  142.2138  171.5135 N.ar    1  UNL1       -0.2481
     22 O         143.9703  138.0531  161.4038 O.3     1  UNL1       -0.4193
     23 C         143.5014  138.6441  160.1073 C.ar    1  UNL1        0.1826
     24 C         142.7962  137.7826  159.1020 C.ar    1  UNL1        0.0408
     25 C         142.3273  138.3736  157.8055 C.ar    1  UNL1        0.0033
     26 C         142.5637  139.8259  157.5143 C.ar    1  UNL1        0.0033
     27 C         143.2690  140.6874  158.5195 C.ar    1  UNL1        0.0404
     28 C         143.7379  140.0964  159.8161 C.ar    1  UNL1        0.1811
     29 O         144.4431  140.9578  160.8213 O.3     1  UNL1       -0.4013
     30 C         143.8907  142.3077  161.1713 C.3     1  UNL1        0.5754
     31 F         143.3383  143.6577  161.5213 F       1  UNL1       -0.1328
     32 F         145.1103  142.9580  160.5882 F       1  UNL1       -0.1328
     33 F         142.6712  141.6575  161.7544 F       1  UNL1       -0.1328
@<TRIPOS>BOND
     1    15    16    1
     2    16    17   ar
     3    17    18   ar
     4    18     1    1
     5     1     2   ar
     6     2     3   ar
     7     3     4   ar
     8     4     5   ar
     9     5     6   ar
    10     5     7    1
    11     7     8   ar
    12     8     9   ar
    13     9    10   ar
    14    10    22    1
    15    22    23    1
    16    23    24   ar
    17    24    25   ar
    18    25    26   ar
    19    26    27   ar
    20    27    28   ar
    21    28    29    1
    22    29    30    1
    23    30    31    1
    24    30    32    1
    25    30    33    1
    26    10    11   ar
    27    11    12    1
    28    12    13    1
    29    13    14    1
    30    18    19   ar
    31    19    20   ar
    32    20    21   ar
    33    21    16   ar
    34     6     1   ar
    35    11     7   ar
    36    14     4    1
    37    28    23   ar
@<TRIPOS>MOLECULE
*****
 33 37 0 0 0
SMALL
GASTEIGER

@<TRIPOS>ATOM
      1 C         139.8821  140.0483  167.5561 C.ar    1  UNL1        0.0004
      2 C         138.5621  139.3688  167.3418 C.ar    1  UNL1        0.0031
      3 C         138.2833  138.6629  166.0481 C.ar    1  UNL1        0.0370
      4 C         139.3244  138.6364  164.9686 C.ar    1  UNL1        0.1415
      5 C         140.6444  139.3159  165.1829 C.ar    1  UNL1        0.0699
      6 C         140.9232  140.0218  166.4766 C.ar    1  UNL1        0.0061
      7 C         141.8115  139.4090  164.2453 C.ar    1  UNL1        0.1718
      8 N         143.0867  140.1236  164.5815 N.ar    1  UNL1       -0.1258
      9 N         144.0102  140.0019  163.4057 N.ar    1  UNL1       -0.0913
     10 C         143.3057  139.2120  162.3429 C.ar    1  UNL1        0.3249
     11 N         141.9469  138.8455  162.8617 N.ar    1  UNL1       -0.2613
     12 C         140.9486  138.0499  162.0741 C.3     1  UNL1        0.1592
     13 C         139.5684  137.6211  162.4755 C.3     1  UNL1        0.2299
     14 O         138.8455  137.8822  163.7637 O.3     1  UNL1       -0.4733
     15 C         140.4365  144.4583  170.2476 C.3     1  UNL1        0.0521
     16 C         140.4382  142.9593  170.1957 C.ar    1  UNL1        0.0594
     17 C         140.1593  142.2533  168.9019 C.ar    1  UNL1        0.0147
     18 C         140.1609  140.7542  168.8500 C.ar    1  UNL1        0.0027
     19 C         140.4414  139.9611  170.0918 C.ar    1  UNL1        0.0207
     20 C         140.7203  140.6669  171.3856 C.ar    1  UNL1        0.0984
     21 N         140.7186  142.1661  171.4376 N.ar    1  UNL1       -0.2481
     22 O         143.8625  138.8518  160.9974 O.3     1  UNL1       -0.4193
     23 C         143.6770  139.7820  159.8354 C.ar    1  UNL1        0.1826
     24 C         143.9104  141.2536  160.0081 C.ar    1  UNL1        0.0408
     25 C         143.7249  142.1839  158.8460 C.ar    1  UNL1        0.0033
     26 C         143.3061  141.6424  157.5114 C.ar    1  UNL1        0.0033
     27 C         143.0727  140.1708  157.3386 C.ar    1  UNL1        0.0404
     28 C         143.2582  139.2406  158.5007 C.ar    1  UNL1        0.1811
     29 O         143.0247  137.7690  158.3280 O.3     1  UNL1       -0.4013
     30 C         142.3584  137.2559  157.0860 C.3     1  UNL1        0.5754
     31 F         141.6920  136.7428  155.8439 F       1  UNL1       -0.1328
     32 F         143.7014  136.9524  156.4907 F       1  UNL1       -0.1328
     33 F         141.0154  137.5594  157.6811 F       1  UNL1       -0.1328
@<TRIPOS>BOND
     1    15    16    1
     2    16    17   ar
     3    17    18   ar
     4    18     1    1
     5     1     2   ar
     6     2     3   ar
     7     3     4   ar
     8     4     5   ar
     9     5     6   ar
    10     5     7    1
    11     7     8   ar
    12     8     9   ar
    13     9    10   ar
    14    10    22    1
    15    22    23    1
    16    23    24   ar
    17    24    25   ar
    18    25    26   ar
    19    26    27   ar
    20    27    28   ar
    21    28    29    1
    22    29    30    1
    23    30    31    1
    24    30    32    1
    25    30    33    1
    26    10    11   ar
    27    11    12    1
    28    12    13    1
    29    13    14    1
    30    18    19   ar
    31    19    20   ar
    32    20    21   ar
    33    21    16   ar
    34     6     1   ar
    35    11     7   ar
    36    14     4    1
    37    28    23   ar
@<TRIPOS>MOLECULE
*****
 33 37 0 0 0
SMALL
GASTEIGER

@<TRIPOS>ATOM
      1 C         139.6959  140.7936  167.2921 C.ar    1  UNL1        0.0004
      2 C         138.8994  139.5672  166.9582 C.ar    1  UNL1        0.0031
      3 C         138.3247  139.3975  165.5832 C.ar    1  UNL1        0.0370
      4 C         138.5466  140.4542  164.5419 C.ar    1  UNL1        0.1415
      5 C         139.3431  141.6806  164.8757 C.ar    1  UNL1        0.0699
      6 C         139.9177  141.8503  166.2508 C.ar    1  UNL1        0.0061
      7 C         139.6804  142.8456  163.9932 C.ar    1  UNL1        0.1718
      8 N         140.4920  144.0212  164.4507 N.ar    1  UNL1       -0.1258
      9 N         140.6177  144.9741  163.2991 N.ar    1  UNL1       -0.0913
     10 C         139.8838  144.3874  162.1299 C.ar    1  UNL1        0.3249
     11 N         139.3046  143.0719  162.5588 N.ar    1  UNL1       -0.2613
     12 C         138.4985  142.1891  161.6527 C.3     1  UNL1        0.1592
     13 C         137.8693  140.8620  161.9571 C.3     1  UNL1        0.2299
     14 O         137.8907  140.0899  163.2430 O.3     1  UNL1       -0.4733
     15 C         143.0502  143.1122  170.5128 C.3     1  UNL1        0.0521
     16 C         141.9477  142.1227  170.2776 C.ar    1  UNL1        0.0594
     17 C         141.3730  141.9529  168.9024 C.ar    1  UNL1        0.0147
     18 C         140.2706  140.9634  168.6672 C.ar    1  UNL1        0.0027
     19 C         139.7428  140.1435  169.8071 C.ar    1  UNL1        0.0207
     20 C         140.3175  140.3132  171.1822 C.ar    1  UNL1        0.0984
     21 N         141.4200  141.3028  171.4175 N.ar    1  UNL1       -0.2481
     22 O         139.7524  145.0074  160.7703 O.3     1  UNL1       -0.4193
     23 C         140.4744  144.4085  159.5998 C.ar    1  UNL1        0.1826
     24 C         139.7342  144.1282  158.3256 C.ar    1  UNL1        0.0408
     25 C         140.4563  143.5293  157.1551 C.ar    1  UNL1        0.0033
     26 C         141.9184  143.2108  157.2589 C.ar    1  UNL1        0.0033
     27 C         142.6585  143.4911  158.5331 C.ar    1  UNL1        0.0404
     28 C         141.9364  144.0900  159.7036 C.ar    1  UNL1        0.1811
     29 O         142.6766  144.3703  160.9778 O.3     1  UNL1       -0.4013
     30 C         143.3721  143.2560  161.7019 C.3     1  UNL1        0.5754
     31 F         144.0678  142.1416  162.4260 F       1  UNL1       -0.1328
     32 F         142.2464  142.3274  161.3545 F       1  UNL1       -0.1328
     33 F         144.4979  144.1844  162.0494 F       1  UNL1       -0.1328
@<TRIPOS>BOND
     1    15    16    1
     2    16    17   ar
     3    17    18   ar
     4    18     1    1
     5     1     2   ar
     6     2     3   ar
     7     3     4   ar
     8     4     5   ar
     9     5     6   ar
    10     5     7    1
    11     7     8   ar
    12     8     9   ar
    13     9    10   ar
    14    10    22    1
    15    22    23    1
    16    23    24   ar
    17    24    25   ar
    18    25    26   ar
    19    26    27   ar
    20    27    28   ar
    21    28    29    1
    22    29    30    1
    23    30    31    1
    24    30    32    1
    25    30    33    1
    26    10    11   ar
    27    11    12    1
    28    12    13    1
    29    13    14    1
    30    18    19   ar
    31    19    20   ar
    32    20    21   ar
    33    21    16   ar
    34     6     1   ar
    35    11     7   ar
    36    14     4    1
    37    28    23   ar
@<TRIPOS>MOLECULE
*****
 33 37 0 0 0
SMALL
GASTEIGER

@<TRIPOS>ATOM
      1 C         139.8402  140.7061  167.1997 C.ar    1  UNL1        0.0004
      2 C         139.0009  139.4851  166.9659 C.ar    1  UNL1        0.0031
      3 C         138.3006  139.2966  165.6529 C.ar    1  UNL1        0.0370
      4 C         138.4396  140.3291  164.5737 C.ar    1  UNL1        0.1415
      5 C         139.2789  141.5501  164.8075 C.ar    1  UNL1        0.0699
      6 C         139.9792  141.7386  166.1206 C.ar    1  UNL1        0.0061
      7 C         139.5489  142.6924  163.8736 C.ar    1  UNL1        0.1718
      8 N         140.4138  143.8648  164.2303 N.ar    1  UNL1       -0.1258
      9 N         140.4457  144.7928  163.0521 N.ar    1  UNL1       -0.0913
     10 C         139.6004  144.1938  161.9674 C.ar    1  UNL1        0.3249
     11 N         139.0461  142.8957  162.4750 N.ar    1  UNL1       -0.2613
     12 C         138.1494  142.0070  161.6650 C.3     1  UNL1        0.1592
     13 C         137.5338  140.6955  162.0535 C.3     1  UNL1        0.2299
     14 O         137.6630  139.9488  163.3481 O.3     1  UNL1       -0.4733
     15 C         143.9414  142.3867  169.9119 C.3     1  UNL1        0.0521
     16 C         142.5911  141.7349  169.8689 C.ar    1  UNL1        0.0594
     17 C         141.8908  141.5464  168.5558 C.ar    1  UNL1        0.0147
     18 C         140.5405  140.8947  168.5128 C.ar    1  UNL1        0.0027
     19 C         139.8904  140.4315  169.7828 C.ar    1  UNL1        0.0207
     20 C         140.5907  140.6200  171.0958 C.ar    1  UNL1        0.0984
     21 N         141.9410  141.2717  171.1389 N.ar    1  UNL1       -0.2481
     22 O         139.3530  144.7887  160.6127 O.3     1  UNL1       -0.4193
     23 C         140.1670  144.3387  159.4359 C.ar    1  UNL1        0.1826
     24 C         141.5932  144.7820  159.2971 C.ar    1  UNL1        0.0408
     25 C         142.4072  144.3320  158.1201 C.ar    1  UNL1        0.0033
     26 C         141.7949  143.4389  157.0822 C.ar    1  UNL1        0.0033
     27 C         140.3686  142.9957  157.2210 C.ar    1  UNL1        0.0404
     28 C         139.5546  143.4457  158.3980 C.ar    1  UNL1        0.1811
     29 O         138.1283  143.0025  158.5368 O.3     1  UNL1       -0.4013
     30 C         137.5637  141.9847  157.5907 C.3     1  UNL1        0.5754
     31 F         136.9990  140.9668  156.6445 F       1  UNL1       -0.1328
     32 F         138.0199  140.8841  158.5022 F       1  UNL1       -0.1328
     33 F         137.1075  143.0851  156.6791 F       1  UNL1       -0.1328
@<TRIPOS>BOND
     1    15    16    1
     2    16    17   ar
     3    17    18   ar
     4    18     1    1
     5     1     2   ar
     6     2     3   ar
     7     3     4   ar
     8     4     5   ar
     9     5     6   ar
    10     5     7    1
    11     7     8   ar
    12     8     9   ar
    13     9    10   ar
    14    10    22    1
    15    22    23    1
    16    23    24   ar
    17    24    25   ar
    18    25    26   ar
    19    26    27   ar
    20    27    28   ar
    21    28    29    1
    22    29    30    1
    23    30    31    1
    24    30    32    1
    25    30    33    1
    26    10    11   ar
    27    11    12    1
    28    12    13    1
    29    13    14    1
    30    18    19   ar
    31    19    20   ar
    32    20    21   ar
    33    21    16   ar
    34     6     1   ar
    35    11     7   ar
    36    14     4    1
    37    28    23   ar
@<TRIPOS>MOLECULE
*****
 33 37 0 0 0
SMALL
GASTEIGER

@<TRIPOS>ATOM
      1 C         142.5991  140.5533  167.3184 C.ar    1  UNL1        0.0004
      2 C         142.9126  139.0967  167.1457 C.ar    1  UNL1        0.0031
      3 C         143.2975  138.5672  165.7961 C.ar    1  UNL1        0.0370
      4 C         143.3690  139.4944  164.6192 C.ar    1  UNL1        0.1415
      5 C         143.0555  140.9511  164.7918 C.ar    1  UNL1        0.0699
      6 C         142.6706  141.4805  166.1414 C.ar    1  UNL1        0.0061
      7 C         143.0660  142.0388  163.7591 C.ar    1  UNL1        0.1718
      8 N         142.7301  143.4690  164.0617 N.ar    1  UNL1       -0.1258
      9 N         142.8492  144.2527  162.7882 N.ar    1  UNL1       -0.0913
     10 C         143.2587  143.3068  161.6985 C.ar    1  UNL1        0.3249
     11 N         143.3926  141.9385  162.2984 N.ar    1  UNL1       -0.2613
     12 C         143.7894  140.7257  161.5100 C.3     1  UNL1        0.1592
     13 C         143.9576  139.3137  161.9873 C.3     1  UNL1        0.2299
     14 O         143.7704  138.7657  163.3711 O.3     1  UNL1       -0.4733
     15 C         140.4319  144.2570  170.2487 C.3     1  UNL1        0.0521
     16 C         141.1306  142.9347  170.1332 C.ar    1  UNL1        0.0594
     17 C         141.5155  142.4052  168.7835 C.ar    1  UNL1        0.0147
     18 C         142.2142  141.0829  168.6680 C.ar    1  UNL1        0.0027
     19 C         142.5279  140.2900  169.9021 C.ar    1  UNL1        0.0207
     20 C         142.1430  140.8195  171.2517 C.ar    1  UNL1        0.0984
     21 N         141.4443  142.1419  171.3673 N.ar    1  UNL1       -0.2481
     22 O         143.4930  143.6661  160.2611 O.3     1  UNL1       -0.4193
     23 C         142.4051  143.4592  159.2493 C.ar    1  UNL1        0.1826
     24 C         142.5669  142.4248  158.1751 C.ar    1  UNL1        0.0408
     25 C         141.4790  142.2179  157.1633 C.ar    1  UNL1        0.0033
     26 C         140.2295  143.0454  157.2257 C.ar    1  UNL1        0.0033
     27 C         140.0677  144.0797  158.2999 C.ar    1  UNL1        0.0404
     28 C         141.1556  144.2866  159.3117 C.ar    1  UNL1        0.1811
     29 O         140.9938  145.3210  160.3859 O.3     1  UNL1       -0.4013
     30 C         139.8468  145.2300  161.3482 C.3     1  UNL1        0.5754
     31 F         138.6997  145.1390  162.3105 F       1  UNL1       -0.1328
     32 F         140.0512  143.7476  161.4518 F       1  UNL1       -0.1328
     33 F         139.6424  146.7124  161.2447 F       1  UNL1       -0.1328
@<TRIPOS>BOND
     1    15    16    1
     2    16    17   ar
     3    17    18   ar
     4    18     1    1
     5     1     2   ar
     6     2     3   ar
     7     3     4   ar
     8     4     5   ar
     9     5     6   ar
    10     5     7    1
    11     7     8   ar
    12     8     9   ar
    13     9    10   ar
    14    10    22    1
    15    22    23    1
    16    23    24   ar
    17    24    25   ar
    18    25    26   ar
    19    26    27   ar
    20    27    28   ar
    21    28    29    1
    22    29    30    1
    23    30    31    1
    24    30    32    1
    25    30    33    1
    26    10    11   ar
    27    11    12    1
    28    12    13    1
    29    13    14    1
    30    18    19   ar
    31    19    20   ar
    32    20    21   ar
    33    21    16   ar
    34     6     1   ar
    35    11     7   ar
    36    14     4    1
    37    28    23   ar
@<TRIPOS>MOLECULE
*****
 33 37 0 0 0
SMALL
GASTEIGER

@<TRIPOS>ATOM
      1 C         140.7606  140.1014  166.2480 C.ar    1  UNL1        0.0004
      2 C         142.0794  139.3967  166.1293 C.ar    1  UNL1        0.0031
      3 C         142.5268  138.8614  164.8014 C.ar    1  UNL1        0.0370
      4 C         141.6554  139.0309  163.5923 C.ar    1  UNL1        0.1415
      5 C         140.3366  139.7357  163.7110 C.ar    1  UNL1        0.0699
      6 C         139.8892  140.2709  165.0389 C.ar    1  UNL1        0.0061
      7 C         139.3230  140.0100  162.6400 C.ar    1  UNL1        0.1718
      8 N         138.0314  140.7308  162.8895 N.ar    1  UNL1       -0.1258
      9 N         137.2880  140.8136  161.5893 N.ar    1  UNL1       -0.0913
     10 C         138.1201  140.1440  160.5362 C.ar    1  UNL1        0.3249
     11 N         139.3778  139.6473  161.1855 N.ar    1  UNL1       -0.2613
     12 C         140.4598  138.9207  160.4429 C.3     1  UNL1        0.1592
     13 C         141.7542  138.3773  160.9714 C.3     1  UNL1        0.2299
     14 O         142.2862  138.4264  162.3730 O.3     1  UNL1       -0.4733
     15 C         140.8255  143.8557  169.8399 C.3     1  UNL1        0.0521
     16 C         140.3456  142.5139  169.3719 C.ar    1  UNL1        0.0594
     17 C         140.7931  141.9786  168.0440 C.ar    1  UNL1        0.0147
     18 C         140.3132  140.6367  167.5760 C.ar    1  UNL1        0.0027
     19 C         139.3859  139.8301  168.4359 C.ar    1  UNL1        0.0207
     20 C         138.9384  140.3653  169.7637 C.ar    1  UNL1        0.0984
     21 N         139.4183  141.7072  170.2318 N.ar    1  UNL1       -0.2481
     22 O         137.7580  139.9968  159.0880 O.3     1  UNL1       -0.4193
     23 C         137.9602  141.1448  158.1439 C.ar    1  UNL1        0.1826
     24 C         139.0569  142.1372  158.3939 C.ar    1  UNL1        0.0408
     25 C         139.2590  143.2852  157.4497 C.ar    1  UNL1        0.0033
     26 C         138.3645  143.4406  156.2557 C.ar    1  UNL1        0.0033
     27 C         137.2679  142.4482  156.0057 C.ar    1  UNL1        0.0404
     28 C         137.0658  141.3002  156.9499 C.ar    1  UNL1        0.1811
     29 O         135.9691  140.3078  156.6999 O.3     1  UNL1       -0.4013
     30 C         135.3027  140.2487  155.3574 C.3     1  UNL1        0.5754
     31 F         134.6363  140.1896  154.0149 F       1  UNL1       -0.1328
     32 F         136.4535  139.4498  154.8212 F       1  UNL1       -0.1328
     33 F         134.1519  141.0476  155.8935 F       1  UNL1       -0.1328
@<TRIPOS>BOND
     1    15    16    1
     2    16    17   ar
     3    17    18   ar
     4    18     1    1
     5     1     2   ar
     6     2     3   ar
     7     3     4   ar
     8     4     5   ar
     9     5     6   ar
    10     5     7    1
    11     7     8   ar
    12     8     9   ar
    13     9    10   ar
    14    10    22    1
    15    22    23    1
    16    23    24   ar
    17    24    25   ar
    18    25    26   ar
    19    26    27   ar
    20    27    28   ar
    21    28    29    1
    22    29    30    1
    23    30    31    1
    24    30    32    1
    25    30    33    1
    26    10    11   ar
    27    11    12    1
    28    12    13    1
    29    13    14    1
    30    18    19   ar
    31    19    20   ar
    32    20    21   ar
    33    21    16   ar
    34     6     1   ar
    35    11     7   ar
    36    14     4    1
    37    28    23   ar
@<TRIPOS>MOLECULE
*****
 33 37 0 0 0
SMALL
GASTEIGER

@<TRIPOS>ATOM
      1 C         142.9115  141.5322  166.4099 C.ar    1  UNL1        0.0004
      2 C         143.5868  142.8647  166.2746 C.ar    1  UNL1        0.0031
      3 C         144.1666  143.2812  164.9554 C.ar    1  UNL1        0.0370
      4 C         144.0712  142.3651  163.7715 C.ar    1  UNL1        0.1415
      5 C         143.3959  141.0325  163.9068 C.ar    1  UNL1        0.0699
      6 C         142.8161  140.6161  165.2260 C.ar    1  UNL1        0.0061
      7 C         143.1935  139.9762  162.8613 C.ar    1  UNL1        0.1718
      8 N         142.4958  138.6749  163.1255 N.ar    1  UNL1       -0.1258
      9 N         142.4876  137.8858  161.8498 N.ar    1  UNL1       -0.0913
     10 C         143.1801  138.6996  160.7971 C.ar    1  UNL1        0.3249
     11 N         143.6164  139.9915  161.4222 N.ar    1  UNL1       -0.2613
     12 C         144.3462  141.0669  160.6732 C.3     1  UNL1        0.1592
     13 C         144.8333  142.3926  161.1783 C.3     1  UNL1        0.2299
     14 O         144.7109  142.9703  162.5572 O.3     1  UNL1       -0.4733
     15 C         139.8844  142.5347  170.5126 C.3     1  UNL1        0.0521
     16 C         140.8181  141.6170  169.7805 C.ar    1  UNL1        0.0594
     17 C         141.3980  142.0335  168.4612 C.ar    1  UNL1        0.0147
     18 C         142.3317  141.1158  167.7291 C.ar    1  UNL1        0.0027
     19 C         142.6855  139.7816  168.3162 C.ar    1  UNL1        0.0207
     20 C         142.1057  139.3651  169.6354 C.ar    1  UNL1        0.0984
     21 N         141.1720  140.2828  170.3676 N.ar    1  UNL1       -0.2481
     22 O         143.3981  138.2927  159.3699 O.3     1  UNL1       -0.4193
     23 C         142.2220  138.0523  158.4705 C.ar    1  UNL1        0.1826
     24 C         140.9184  138.7439  158.7394 C.ar    1  UNL1        0.0408
     25 C         139.7423  138.5034  157.8400 C.ar    1  UNL1        0.0033
     26 C         139.8698  137.5714  156.6717 C.ar    1  UNL1        0.0033
     27 C         141.1734  136.8798  156.4027 C.ar    1  UNL1        0.0404
     28 C         142.3495  137.1203  157.3022 C.ar    1  UNL1        0.1811
     29 O         143.6531  136.4287  157.0332 O.3     1  UNL1       -0.4013
     30 C         143.6839  135.1870  156.1923 C.3     1  UNL1        0.5754
     31 F         143.7147  133.9452  155.3513 F       1  UNL1       -0.1328
     32 F         144.1428  135.9955  155.0151 F       1  UNL1       -0.1328
     33 F         143.2250  134.3784  157.3694 F       1  UNL1       -0.1328
@<TRIPOS>BOND
     1    15    16    1
     2    16    17   ar
     3    17    18   ar
     4    18     1    1
     5     1     2   ar
     6     2     3   ar
     7     3     4   ar
     8     4     5   ar
     9     5     6   ar
    10     5     7    1
    11     7     8   ar
    12     8     9   ar
    13     9    10   ar
    14    10    22    1
    15    22    23    1
    16    23    24   ar
    17    24    25   ar
    18    25    26   ar
    19    26    27   ar
    20    27    28   ar
    21    28    29    1
    22    29    30    1
    23    30    31    1
    24    30    32    1
    25    30    33    1
    26    10    11   ar
    27    11    12    1
    28    12    13    1
    29    13    14    1
    30    18    19   ar
    31    19    20   ar
    32    20    21   ar
    33    21    16   ar
    34     6     1   ar
    35    11     7   ar
    36    14     4    1
    37    28    23   ar
@<TRIPOS>MOLECULE
*****
 33 37 0 0 0
SMALL
GASTEIGER

@<TRIPOS>ATOM
      1 C         141.4998  142.5337  166.9680 C.ar    1  UNL1        0.0004
      2 C         142.9617  142.2008  166.9230 C.ar    1  UNL1        0.0031
      3 C         143.7277  142.3590  165.6431 C.ar    1  UNL1        0.0370
      4 C         143.0319  142.8500  164.4083 C.ar    1  UNL1        0.1415
      5 C         141.5700  143.1828  164.4534 C.ar    1  UNL1        0.0699
      6 C         140.8040  143.0247  165.7332 C.ar    1  UNL1        0.0061
      7 C         140.6903  143.6834  163.3464 C.ar    1  UNL1        0.1718
      8 N         139.2306  143.9813  163.5214 N.ar    1  UNL1       -0.1258
      9 N         138.6934  144.4567  162.2040 N.ar    1  UNL1       -0.0913
     10 C         139.8210  144.4526  161.2149 C.ar    1  UNL1        0.3249
     11 N         141.0552  143.9747  161.9209 N.ar    1  UNL1       -0.2613
     12 C         142.3899  143.8374  161.2504 C.3     1  UNL1        0.1592
     13 C         143.6894  143.3749  161.8396 C.3     1  UNL1        0.2299
     14 O         143.9751  142.9355  163.2451 O.3     1  UNL1       -0.4733
     15 C         138.4018  139.7100  170.0388 C.3     1  UNL1        0.0521
     16 C         139.1847  140.9637  169.7833 C.ar    1  UNL1        0.0594
     17 C         139.9508  141.1218  168.5034 C.ar    1  UNL1        0.0147
     18 C         140.7336  142.3755  168.2479 C.ar    1  UNL1        0.0027
     19 C         140.7504  143.4711  169.2723 C.ar    1  UNL1        0.0207
     20 C         139.9843  143.3130  170.5522 C.ar    1  UNL1        0.0984
     21 N         139.2014  142.0593  170.8077 N.ar    1  UNL1       -0.2481
     22 O         139.7303  144.8558  159.7729 O.3     1  UNL1       -0.4193
     23 C         139.6316  143.8065  158.7055 C.ar    1  UNL1        0.1826
     24 C         138.7290  142.6240  158.8975 C.ar    1  UNL1        0.0408
     25 C         138.6304  141.5747  157.8300 C.ar    1  UNL1        0.0033
     26 C         139.4344  141.7081  156.5708 C.ar    1  UNL1        0.0033
     27 C         140.3370  142.8906  156.3788 C.ar    1  UNL1        0.0404
     28 C         140.4356  143.9399  157.4463 C.ar    1  UNL1        0.1811
     29 O         141.3382  145.1224  157.2543 O.3     1  UNL1       -0.4013
     30 C         140.9957  146.1702  156.2371 C.3     1  UNL1        0.5754
     31 F         140.6531  147.2180  155.2198 F       1  UNL1       -0.1328
     32 F         139.9520  146.7255  157.1604 F       1  UNL1       -0.1328
     33 F         142.0394  145.6150  155.3138 F       1  UNL1       -0.1328
@<TRIPOS>BOND
     1    15    16    1
     2    16    17   ar
     3    17    18   ar
     4    18     1    1
     5     1     2   ar
     6     2     3   ar
     7     3     4   ar
     8     4     5   ar
     9     5     6   ar
    10     5     7    1
    11     7     8   ar
    12     8     9   ar
    13     9    10   ar
    14    10    22    1
    15    22    23    1
    16    23    24   ar
    17    24    25   ar
    18    25    26   ar
    19    26    27   ar
    20    27    28   ar
    21    28    29    1
    22    29    30    1
    23    30    31    1
    24    30    32    1
    25    30    33    1
    26    10    11   ar
    27    11    12    1
    28    12    13    1
    29    13    14    1
    30    18    19   ar
    31    19    20   ar
    32    20    21   ar
    33    21    16   ar
    34     6     1   ar
    35    11     7   ar
    36    14     4    1
    37    28    23   ar
@<TRIPOS>MOLECULE
*****
 33 37 0 0 0
SMALL
GASTEIGER

@<TRIPOS>ATOM
      1 C         140.9323  138.1166  156.9734 C.ar    1  UNL1        0.0004
      2 C         141.1448  139.3778  156.1896 C.ar    1  UNL1        0.0031
      3 C         140.7202  140.6974  156.7626 C.ar    1  UNL1        0.0370
      4 C         140.0831  140.7558  158.1193 C.ar    1  UNL1        0.1415
      5 C         139.8707  139.4947  158.9031 C.ar    1  UNL1        0.0699
      6 C         140.2953  138.1751  158.3302 C.ar    1  UNL1        0.0061
      7 C         139.2591  139.3304  160.2628 C.ar    1  UNL1        0.1718
      8 N         139.1024  138.0030  160.9437 N.ar    1  UNL1       -0.1258
      9 N         138.4553  138.2390  162.2762 N.ar    1  UNL1       -0.0913
     10 C         138.2121  139.7122  162.4189 C.ar    1  UNL1        0.3249
     11 N         138.7088  140.3867  161.1746 N.ar    1  UNL1       -0.2613
     12 C         138.6342  141.8682  160.9518 C.3     1  UNL1        0.1592
     13 C         139.0915  142.6593  159.7623 C.3     1  UNL1        0.2299
     14 O         139.7364  142.1642  158.5017 O.3     1  UNL1       -0.4733
     15 C         143.9573  133.8956  157.1557 C.3     1  UNL1        0.0521
     16 C         142.8694  134.6864  156.4916 C.ar    1  UNL1        0.0594
     17 C         142.4448  136.0061  157.0646 C.ar    1  UNL1        0.0147
     18 C         141.3570  136.7969  156.4004 C.ar    1  UNL1        0.0027
     19 C         140.6936  136.2681  155.1634 C.ar    1  UNL1        0.0207
     20 C         141.1182  134.9485  154.5904 C.ar    1  UNL1        0.0984
     21 N         142.2061  134.1576  155.2545 N.ar    1  UNL1       -0.2481
     22 O         137.5825  140.3915  163.5988 O.3     1  UNL1       -0.4193
     23 C         138.2610  140.3537  164.9361 C.ar    1  UNL1        0.1826
     24 C         138.0352  139.1931  165.8591 C.ar    1  UNL1        0.0408
     25 C         138.7137  139.1554  167.1964 C.ar    1  UNL1        0.0033
     26 C         139.6179  140.2782  167.6106 C.ar    1  UNL1        0.0033
     27 C         139.8437  141.4388  166.6876 C.ar    1  UNL1        0.0404
     28 C         139.1652  141.4766  165.3503 C.ar    1  UNL1        0.1811
     29 O         139.3910  142.6372  164.4273 O.3     1  UNL1       -0.4013
     30 C         139.0372  144.0264  164.8687 C.3     1  UNL1        0.5754
     31 F         138.6835  145.4157  165.3101 F       1  UNL1       -0.1328
     32 F         140.4914  144.3947  164.8754 F       1  UNL1       -0.1328
     33 F         137.5831  143.6582  164.8621 F       1  UNL1       -0.1328
@<TRIPOS>BOND
     1    15    16    1
     2    16    17   ar
     3    17    18   ar
     4    18     1    1
     5     1     2   ar
     6     2     3   ar
     7     3     4   ar
     8     4     5   ar
     9     5     6   ar
    10     5     7    1
    11     7     8   ar
    12     8     9   ar
    13     9    10   ar
    14    10    22    1
    15    22    23    1
    16    23    24   ar
    17    24    25   ar
    18    25    26   ar
    19    26    27   ar
    20    27    28   ar
    21    28    29    1
    22    29    30    1
    23    30    31    1
    24    30    32    1
    25    30    33    1
    26    10    11   ar
    27    11    12    1
    28    12    13    1
    29    13    14    1
    30    18    19   ar
    31    19    20   ar
    32    20    21   ar
    33    21    16   ar
    34     6     1   ar
    35    11     7   ar
    36    14     4    1
    37    28    23   ar
