@<TRIPOS>MOLECULE
*****
 34 38 0 0 0
SMALL
GASTEIGER

@<TRIPOS>ATOM
      1 N         142.3983  143.3005  162.2544 N.3     1  UNL1       -0.2726
      2 C         142.3255  144.7980  162.3001 C.3     1  UNL1        0.0721
      3 C         141.2698  145.1806  163.2946 C.3     1  UNL1        0.0190
      4 C         140.6901  143.9196  163.8636 C.3     1  UNL1        0.0202
      5 C         139.7129  144.5953  164.7792 C.3     1  UNL1        0.0062
      6 C         139.7856  143.0978  164.7334 C.3     1  UNL1        0.0259
      7 C         141.3875  142.7576  163.2207 C.3     1  UNL1        0.0724
      8 C         139.3054  141.7588  165.2092 C.ar    1  UNL1        0.0050
      9 C         139.6106  141.3055  166.6062 C.ar    1  UNL1       -0.0021
     10 C         139.1305  139.9665  167.0820 C.ar    1  UNL1        0.0037
     11 C         138.3451  139.0807  166.1608 C.ar    1  UNL1        0.0736
     12 C         138.0398  139.5340  164.7639 C.ar    1  UNL1        0.0332
     13 C         138.5200  140.8730  164.2881 C.ar    1  UNL1        0.1361
     14 F         138.2148  141.3262  162.8912 F       1  UNL1       -0.2045
     15 C         137.8649  137.7417  166.6366 C.3     1  UNL1        0.4186
     16 F         137.3846  136.4026  167.1125 F       1  UNL1       -0.1659
     17 F         138.6042  137.0774  165.5132 F       1  UNL1       -0.1659
     18 F         137.1256  138.4060  167.7600 F       1  UNL1       -0.1659
     19 C         143.3200  142.4884  161.3936 C.3     1  UNL1        0.0730
     20 C         142.8426  141.2007  160.7904 C.3     1  UNL1        0.0294
     21 C         143.8132  140.0849  160.5391 C.3     1  UNL1        0.0666
     22 S         143.9009  138.9364  161.4999 S.3     1  UNL1       -0.0756
     23 C         144.9979  140.5810  164.0963 C.3     1  UNL1        0.1340
     24 N         143.7313  139.7802  164.0306 N.ar    1  UNL1       -0.2884
     25 C         143.2270  139.0243  162.8371 C.ar    1  UNL1        0.1932
     26 N         141.9306  138.3716  163.2157 N.ar    1  UNL1       -0.1221
     27 N         141.6335  138.7242  164.6431 N.ar    1  UNL1       -0.1282
     28 C         142.7464  139.5948  165.1468 C.ar    1  UNL1        0.1683
     29 C         142.8553  140.1775  166.5247 C.ar    1  UNL1        0.0551
     30 C         143.0261  141.6572  166.7018 C.ar    1  UNL1        0.0062
     31 C         143.1350  142.2399  168.0797 C.ar    1  UNL1        0.0208
     32 C         143.0731  141.3429  169.2804 C.ar    1  UNL1        0.0989
     33 N         142.9024  139.8632  169.1032 N.ar    1  UNL1       -0.2422
     34 C         142.7934  139.2805  167.7253 C.ar    1  UNL1        0.1019
@<TRIPOS>BOND
     1    23    24    1
     2    24    25   ar
     3    25    22    1
     4    22    21    1
     5    21    20    1
     6    20    19    1
     7    19     1    1
     8     1     2    1
     9     2     3    1
    10     4     3    1
    11     4     5    1
    12     5     6    1
    13     6     8    1
    14     8     9   ar
    15     9    10   ar
    16    10    11   ar
    17    11    15    1
    18    15    16    1
    19    15    17    1
    20    15    18    1
    21    11    12   ar
    22    12    13   ar
    23    13    14    1
    24     4     7    1
    25    25    26   ar
    26    26    27   ar
    27    27    28   ar
    28    28    29    1
    29    29    30   ar
    30    30    31   ar
    31    31    32   ar
    32    32    33   ar
    33    33    34   ar
    34    28    24   ar
    35    34    29   ar
    36     7     1    1
    37     6     4    1
    38    13     8   ar
@<TRIPOS>MOLECULE
*****
 34 38 0 0 0
SMALL
GASTEIGER

@<TRIPOS>ATOM
      1 N         143.1744  143.8105  163.6903 N.3     1  UNL1       -0.2726
      2 C         142.8960  145.2621  163.4346 C.3     1  UNL1        0.0721
      3 C         141.4657  145.5307  163.7982 C.3     1  UNL1        0.0190
      4 C         140.8602  144.2452  164.2786 C.3     1  UNL1        0.0202
      5 C         139.4970  144.8072  164.5538 C.3     1  UNL1        0.0062
      6 C         139.7754  143.3556  164.8095 C.3     1  UNL1        0.0259
      7 C         141.9162  143.1820  164.2119 C.3     1  UNL1        0.0724
      8 C         139.3098  142.0039  165.2635 C.ar    1  UNL1        0.0050
      9 C         138.4064  141.1882  164.3868 C.ar    1  UNL1       -0.0021
     10 C         137.9409  139.8365  164.8409 C.ar    1  UNL1        0.0037
     11 C         138.3788  139.3006  166.1717 C.ar    1  UNL1        0.0736
     12 C         139.2822  140.1162  167.0484 C.ar    1  UNL1        0.0332
     13 C         139.7477  141.4679  166.5943 C.ar    1  UNL1        0.1361
     14 F         140.6510  142.2835  167.4709 F       1  UNL1       -0.2045
     15 C         137.9132  137.9489  166.6258 C.3     1  UNL1        0.4186
     16 F         137.4476  136.5971  167.0799 F       1  UNL1       -0.1659
     17 F         138.6216  137.3151  165.4654 F       1  UNL1       -0.1659
     18 F         137.2048  138.5827  167.7861 F       1  UNL1       -0.1659
     19 C         144.4815  143.1103  163.4640 C.3     1  UNL1        0.0730
     20 C         144.9895  142.1253  164.4748 C.3     1  UNL1        0.0294
     21 C         145.7295  140.9012  164.0232 C.3     1  UNL1        0.0666
     22 S         144.9910  139.6121  163.8165 S.3     1  UNL1       -0.0756
     23 C         141.7815  139.5016  164.3965 C.3     1  UNL1        0.1340
     24 N         142.4350  139.4741  163.0466 N.ar    1  UNL1       -0.2884
     25 C         143.9102  139.5248  162.7800 C.ar    1  UNL1        0.1932
     26 N         144.1150  139.4731  161.2949 N.ar    1  UNL1       -0.1221
     27 N         142.7663  139.3903  160.6437 N.ar    1  UNL1       -0.1282
     28 C         141.7279  139.3909  161.7262 C.ar    1  UNL1        0.1683
     29 C         140.2433  139.3207  161.5240 C.ar    1  UNL1        0.0551
     30 C         139.5086  140.4944  160.9472 C.ar    1  UNL1        0.0062
     31 C         138.0239  140.4242  160.7450 C.ar    1  UNL1        0.0208
     32 C         137.2740  139.1802  161.1196 C.ar    1  UNL1        0.0989
     33 N         138.0087  138.0065  161.6963 N.ar    1  UNL1       -0.2422
     34 C         139.4934  138.0768  161.8985 C.ar    1  UNL1        0.1019
@<TRIPOS>BOND
     1    23    24    1
     2    24    25   ar
     3    25    22    1
     4    22    21    1
     5    21    20    1
     6    20    19    1
     7    19     1    1
     8     1     2    1
     9     2     3    1
    10     4     3    1
    11     4     5    1
    12     5     6    1
    13     6     8    1
    14     8     9   ar
    15     9    10   ar
    16    10    11   ar
    17    11    15    1
    18    15    16    1
    19    15    17    1
    20    15    18    1
    21    11    12   ar
    22    12    13   ar
    23    13    14    1
    24     4     7    1
    25    25    26   ar
    26    26    27   ar
    27    27    28   ar
    28    28    29    1
    29    29    30   ar
    30    30    31   ar
    31    31    32   ar
    32    32    33   ar
    33    33    34   ar
    34    28    24   ar
    35    34    29   ar
    36     7     1    1
    37     6     4    1
    38    13     8   ar
@<TRIPOS>MOLECULE
*****
 34 38 0 0 0
SMALL
GASTEIGER

@<TRIPOS>ATOM
      1 N         142.8860  143.0025  161.6382 N.3     1  UNL1       -0.2726
      2 C         144.2378  142.9159  160.9939 C.3     1  UNL1        0.0721
      3 C         145.1598  142.2109  161.9441 C.3     1  UNL1        0.0190
      4 C         144.3777  141.8617  163.1756 C.3     1  UNL1        0.0202
      5 C         145.5128  141.2007  163.9000 C.3     1  UNL1        0.0062
      6 C         144.1610  141.2873  164.5442 C.3     1  UNL1        0.0259
      7 C         142.9724  142.3510  162.9865 C.3     1  UNL1        0.0724
      8 C         143.2553  141.0057  165.7063 C.ar    1  UNL1        0.0050
      9 C         143.0899  142.0265  166.7928 C.ar    1  UNL1       -0.0021
     10 C         142.1842  141.7449  167.9549 C.ar    1  UNL1        0.0037
     11 C         141.4441  140.4425  168.0305 C.ar    1  UNL1        0.0736
     12 C         141.6095  139.4216  166.9440 C.ar    1  UNL1        0.0332
     13 C         142.5151  139.7032  165.7819 C.ar    1  UNL1        0.1361
     14 F         142.6806  138.6825  164.6954 F       1  UNL1       -0.2045
     15 C         140.5384  140.1608  169.1926 C.3     1  UNL1        0.4186
     16 F         139.6328  139.8792  170.3548 F       1  UNL1       -0.1659
     17 F         139.5546  141.1649  168.6692 F       1  UNL1       -0.1659
     18 F         141.5222  139.1567  169.7159 F       1  UNL1       -0.1659
     19 C         141.6625  143.6304  161.0392 C.3     1  UNL1        0.0730
     20 C         141.3569  145.0756  161.3001 C.3     1  UNL1        0.0294
     21 C         139.9368  145.5196  161.4903 C.3     1  UNL1        0.0666
     22 S         139.1599  145.0560  162.6867 S.3     1  UNL1       -0.0756
     23 C         140.0501  142.7854  164.8549 C.3     1  UNL1        0.1340
     24 N         139.0573  142.6037  163.7453 N.ar    1  UNL1       -0.2884
     25 C         138.6481  143.6474  162.7487 C.ar    1  UNL1        0.1932
     26 N         137.6372  143.0352  161.8249 N.ar    1  UNL1       -0.1221
     27 N         137.4216  141.6131  162.2506 N.ar    1  UNL1       -0.1282
     28 C         138.2993  141.3464  163.4375 C.ar    1  UNL1        0.1683
     29 C         138.4011  140.0500  164.1852 C.ar    1  UNL1        0.0551
     30 C         138.0358  139.9920  165.6389 C.ar    1  UNL1        0.0062
     31 C         138.1376  138.6956  166.3866 C.ar    1  UNL1        0.0208
     32 C         138.6046  137.4573  165.6805 C.ar    1  UNL1        0.0989
     33 N         138.9699  137.5153  164.2268 N.ar    1  UNL1       -0.2422
     34 C         138.8681  138.8117  163.4792 C.ar    1  UNL1        0.1019
@<TRIPOS>BOND
     1    23    24    1
     2    24    25   ar
     3    25    22    1
     4    22    21    1
     5    21    20    1
     6    20    19    1
     7    19     1    1
     8     1     2    1
     9     2     3    1
    10     4     3    1
    11     4     5    1
    12     5     6    1
    13     6     8    1
    14     8     9   ar
    15     9    10   ar
    16    10    11   ar
    17    11    15    1
    18    15    16    1
    19    15    17    1
    20    15    18    1
    21    11    12   ar
    22    12    13   ar
    23    13    14    1
    24     4     7    1
    25    25    26   ar
    26    26    27   ar
    27    27    28   ar
    28    28    29    1
    29    29    30   ar
    30    30    31   ar
    31    31    32   ar
    32    32    33   ar
    33    33    34   ar
    34    28    24   ar
    35    34    29   ar
    36     7     1    1
    37     6     4    1
    38    13     8   ar
@<TRIPOS>MOLECULE
*****
 34 38 0 0 0
SMALL
GASTEIGER

@<TRIPOS>ATOM
      1 N         137.9805  141.4209  162.2981 N.3     1  UNL1       -0.2726
      2 C         137.6534  140.3607  161.2886 C.3     1  UNL1        0.0721
      3 C         138.0346  139.0323  161.8715 C.3     1  UNL1        0.0190
      4 C         138.5973  139.2713  163.2412 C.3     1  UNL1        0.0202
      5 C         138.8729  137.8299  163.5514 C.3     1  UNL1        0.0062
      6 C         139.2000  138.8900  164.5608 C.3     1  UNL1        0.0259
      7 C         138.5639  140.7476  163.5049 C.3     1  UNL1        0.0724
      8 C         139.7369  139.2819  165.9055 C.ar    1  UNL1        0.0050
      9 C         141.2012  139.5582  166.0770 C.ar    1  UNL1       -0.0021
     10 C         141.7381  139.9501  167.4217 C.ar    1  UNL1        0.0037
     11 C         140.8106  140.0658  168.5949 C.ar    1  UNL1        0.0736
     12 C         139.3462  139.7895  168.4234 C.ar    1  UNL1        0.0332
     13 C         138.8094  139.3976  167.0787 C.ar    1  UNL1        0.1361
     14 F         137.3451  139.1213  166.9072 F       1  UNL1       -0.2045
     15 C         141.3474  140.4577  169.9395 C.3     1  UNL1        0.4186
     16 F         141.8843  140.8497  171.2843 F       1  UNL1       -0.1659
     17 F         141.4778  139.0099  170.3094 F       1  UNL1       -0.1659
     18 F         141.2170  141.9055  169.5696 F       1  UNL1       -0.1659
     19 C         137.7626  142.8954  162.1302 C.3     1  UNL1        0.0730
     20 C         138.2507  143.8499  163.1794 C.3     1  UNL1        0.0294
     21 C         138.9652  145.1059  162.7767 C.3     1  UNL1        0.0666
     22 S         140.4465  145.0836  162.5419 S.3     1  UNL1       -0.0756
     23 C         140.9829  142.5824  160.5155 C.3     1  UNL1        0.1340
     24 N         141.4836  142.6985  161.9247 N.ar    1  UNL1       -0.2884
     25 C         141.2371  143.8482  162.8561 C.ar    1  UNL1        0.1932
     26 N         141.9200  143.5455  164.1570 N.ar    1  UNL1       -0.1221
     27 N         142.5885  142.2088  164.0295 N.ar    1  UNL1       -0.1282
     28 C         142.3189  141.6853  162.6499 C.ar    1  UNL1        0.1683
     29 C         142.8000  140.3781  162.0932 C.ar    1  UNL1        0.0551
     30 C         142.2282  139.0892  162.6048 C.ar    1  UNL1        0.0062
     31 C         142.7094  137.7820  162.0481 C.ar    1  UNL1        0.0208
     32 C         143.7623  137.7639  160.9799 C.ar    1  UNL1        0.0989
     33 N         144.3341  139.0528  160.4683 N.ar    1  UNL1       -0.2422
     34 C         143.8529  140.3600  161.0251 C.ar    1  UNL1        0.1019
@<TRIPOS>BOND
     1    23    24    1
     2    24    25   ar
     3    25    22    1
     4    22    21    1
     5    21    20    1
     6    20    19    1
     7    19     1    1
     8     1     2    1
     9     2     3    1
    10     4     3    1
    11     4     5    1
    12     5     6    1
    13     6     8    1
    14     8     9   ar
    15     9    10   ar
    16    10    11   ar
    17    11    15    1
    18    15    16    1
    19    15    17    1
    20    15    18    1
    21    11    12   ar
    22    12    13   ar
    23    13    14    1
    24     4     7    1
    25    25    26   ar
    26    26    27   ar
    27    27    28   ar
    28    28    29    1
    29    29    30   ar
    30    30    31   ar
    31    31    32   ar
    32    32    33   ar
    33    33    34   ar
    34    28    24   ar
    35    34    29   ar
    36     7     1    1
    37     6     4    1
    38    13     8   ar
@<TRIPOS>MOLECULE
*****
 34 38 0 0 0
SMALL
GASTEIGER

@<TRIPOS>ATOM
      1 N         142.7779  143.4685  162.5489 N.3     1  UNL1       -0.2726
      2 C         142.5871  144.9526  162.4441 C.3     1  UNL1        0.0721
      3 C         141.3354  145.3127  163.1882 C.3     1  UNL1        0.0190
      4 C         140.7527  144.0511  163.7529 C.3     1  UNL1        0.0202
      5 C         139.5712  144.7034  164.4075 C.3     1  UNL1        0.0062
      6 C         139.7620  143.2193  164.5123 C.3     1  UNL1        0.0259
      7 C         141.6442  142.9113  163.3578 C.3     1  UNL1        0.0724
      8 C         139.3003  141.8823  165.0113 C.ar    1  UNL1        0.0050
      9 C         138.5790  140.9455  164.0882 C.ar    1  UNL1       -0.0021
     10 C         138.1172  139.6084  164.5872 C.ar    1  UNL1        0.0037
     11 C         138.3768  139.2081  166.0093 C.ar    1  UNL1        0.0736
     12 C         139.0981  140.1450  166.9324 C.ar    1  UNL1        0.0332
     13 C         139.5598  141.4820  166.4335 C.ar    1  UNL1        0.1361
     14 F         140.2811  142.4188  167.3565 F       1  UNL1       -0.2045
     15 C         137.9150  137.8711  166.5083 C.3     1  UNL1        0.4186
     16 F         137.4532  136.5339  167.0073 F       1  UNL1       -0.1659
     17 F         137.1905  138.5426  167.6371 F       1  UNL1       -0.1659
     18 F         138.6395  137.1996  165.3795 F       1  UNL1       -0.1659
     19 C         143.9046  142.6799  161.9500 C.3     1  UNL1        0.0730
     20 C         145.1345  142.3953  162.7601 C.3     1  UNL1        0.0294
     21 C         145.3464  141.0318  163.3483 C.3     1  UNL1        0.0666
     22 S         144.1699  140.1440  163.6267 S.3     1  UNL1       -0.0756
     23 C         143.2674  142.3103  165.8944 C.3     1  UNL1        0.1340
     24 N         143.3707  140.8260  166.0846 N.ar    1  UNL1       -0.2884
     25 C         143.7855  139.8303  165.0423 C.ar    1  UNL1        0.1932
     26 N         143.7485  138.4657  165.6641 N.ar    1  UNL1       -0.1221
     27 N         143.3108  138.6181  167.0907 N.ar    1  UNL1       -0.1282
     28 C         143.0773  140.0768  167.3507 C.ar    1  UNL1        0.1683
     29 C         142.6291  140.6804  168.6487 C.ar    1  UNL1        0.0551
     30 C         141.6237  139.9645  169.5011 C.ar    1  UNL1        0.0062
     31 C         141.1756  140.5681  170.7992 C.ar    1  UNL1        0.0208
     32 C         141.7329  141.8876  171.2447 C.ar    1  UNL1        0.0989
     33 N         142.7383  142.6035  170.3922 N.ar    1  UNL1       -0.2422
     34 C         143.1864  141.9998  169.0942 C.ar    1  UNL1        0.1019
@<TRIPOS>BOND
     1    23    24    1
     2    24    25   ar
     3    25    22    1
     4    22    21    1
     5    21    20    1
     6    20    19    1
     7    19     1    1
     8     1     2    1
     9     2     3    1
    10     4     3    1
    11     4     5    1
    12     5     6    1
    13     6     8    1
    14     8     9   ar
    15     9    10   ar
    16    10    11   ar
    17    11    15    1
    18    15    16    1
    19    15    17    1
    20    15    18    1
    21    11    12   ar
    22    12    13   ar
    23    13    14    1
    24     4     7    1
    25    25    26   ar
    26    26    27   ar
    27    27    28   ar
    28    28    29    1
    29    29    30   ar
    30    30    31   ar
    31    31    32   ar
    32    32    33   ar
    33    33    34   ar
    34    28    24   ar
    35    34    29   ar
    36     7     1    1
    37     6     4    1
    38    13     8   ar
@<TRIPOS>MOLECULE
*****
 34 38 0 0 0
SMALL
GASTEIGER

@<TRIPOS>ATOM
      1 N         142.1305  138.2737  163.2844 N.3     1  UNL1       -0.2726
      2 C         140.9406  137.4708  162.8491 C.3     1  UNL1        0.0721
      3 C         139.8571  137.6573  163.8695 C.3     1  UNL1        0.0190
      4 C         140.3774  138.5754  164.9355 C.3     1  UNL1        0.0202
      5 C         139.1307  138.5697  165.7696 C.3     1  UNL1        0.0062
      6 C         140.3206  139.3725  166.2049 C.3     1  UNL1        0.0259
      7 C         141.7824  138.9563  164.5739 C.3     1  UNL1        0.0724
      8 C         140.9747  140.2963  167.1891 C.ar    1  UNL1        0.0050
      9 C         140.3681  141.6378  167.4763 C.ar    1  UNL1       -0.0021
     10 C         141.0223  142.5616  168.4605 C.ar    1  UNL1        0.0037
     11 C         142.2831  142.1438  169.1576 C.ar    1  UNL1        0.0736
     12 C         142.8897  140.8023  168.8704 C.ar    1  UNL1        0.0332
     13 C         142.2355  139.8786  167.8862 C.ar    1  UNL1        0.1361
     14 F         142.8420  138.5371  167.5991 F       1  UNL1       -0.2045
     15 C         142.9372  143.0676  170.1418 C.3     1  UNL1        0.4186
     16 F         143.5915  143.9914  171.1260 F       1  UNL1       -0.1659
     17 F         141.6809  143.8842  170.2104 F       1  UNL1       -0.1659
     18 F         144.1936  142.2510  170.0732 F       1  UNL1       -0.1659
     19 C         143.4388  138.3759  162.5579 C.3     1  UNL1        0.0730
     20 C         143.5409  137.9272  161.1302 C.3     1  UNL1        0.0294
     21 C         143.6592  138.9418  160.0317 C.3     1  UNL1        0.0666
     22 S         142.4519  139.3179  159.2249 S.3     1  UNL1       -0.0756
     23 C         142.0427  141.8904  161.1907 C.3     1  UNL1        0.1340
     24 N         140.9905  140.8876  160.8202 N.ar    1  UNL1       -0.2884
     25 C         141.1786  139.7052  159.9167 C.ar    1  UNL1        0.1932
     26 N         139.8697  138.9780  159.8263 N.ar    1  UNL1       -0.1221
     27 N         138.8727  139.7110  160.6740 N.ar    1  UNL1       -0.1282
     28 C         139.5653  140.8913  161.2884 C.ar    1  UNL1        0.1683
     29 C         138.9423  141.8983  162.2091 C.ar    1  UNL1        0.0551
     30 C         138.7876  141.5858  163.6680 C.ar    1  UNL1        0.0062
     31 C         138.1645  142.5928  164.5887 C.ar    1  UNL1        0.0208
     32 C         137.6961  143.9123  164.0504 C.ar    1  UNL1        0.0989
     33 N         137.8508  144.2248  162.5915 N.ar    1  UNL1       -0.2422
     34 C         138.4739  143.2177  161.6708 C.ar    1  UNL1        0.1019
@<TRIPOS>BOND
     1    23    24    1
     2    24    25   ar
     3    25    22    1
     4    22    21    1
     5    21    20    1
     6    20    19    1
     7    19     1    1
     8     1     2    1
     9     2     3    1
    10     4     3    1
    11     4     5    1
    12     5     6    1
    13     6     8    1
    14     8     9   ar
    15     9    10   ar
    16    10    11   ar
    17    11    15    1
    18    15    16    1
    19    15    17    1
    20    15    18    1
    21    11    12   ar
    22    12    13   ar
    23    13    14    1
    24     4     7    1
    25    25    26   ar
    26    26    27   ar
    27    27    28   ar
    28    28    29    1
    29    29    30   ar
    30    30    31   ar
    31    31    32   ar
    32    32    33   ar
    33    33    34   ar
    34    28    24   ar
    35    34    29   ar
    36     7     1    1
    37     6     4    1
    38    13     8   ar
@<TRIPOS>MOLECULE
*****
 34 38 0 0 0
SMALL
GASTEIGER

@<TRIPOS>ATOM
      1 N         142.3548  138.3000  163.1206 N.3     1  UNL1       -0.2726
      2 C         141.1797  137.5155  162.6171 C.3     1  UNL1        0.0721
      3 C         140.0481  137.7041  163.5835 C.3     1  UNL1        0.0190
      4 C         140.5239  138.6052  164.6843 C.3     1  UNL1        0.0202
      5 C         139.2366  138.6054  165.4542 C.3     1  UNL1        0.0062
      6 C         140.4118  139.3899  165.9578 C.3     1  UNL1        0.0259
      7 C         141.9496  138.9735  164.3982 C.3     1  UNL1        0.0724
      8 C         141.0255  140.2959  166.9836 C.ar    1  UNL1        0.0050
      9 C         140.4237  141.6439  167.2498 C.ar    1  UNL1       -0.0021
     10 C         141.0374  142.5498  168.2757 C.ar    1  UNL1        0.0037
     11 C         142.2529  142.1078  169.0354 C.ar    1  UNL1        0.0736
     12 C         142.8547  140.7599  168.7692 C.ar    1  UNL1        0.0332
     13 C         142.2410  139.8539  167.7433 C.ar    1  UNL1        0.1361
     14 F         142.8427  138.5060  167.4772 F       1  UNL1       -0.2045
     15 C         142.8667  143.0138  170.0613 C.3     1  UNL1        0.4186
     16 F         143.4805  143.9198  171.0873 F       1  UNL1       -0.1659
     17 F         141.6082  143.8294  170.0940 F       1  UNL1       -0.1659
     18 F         144.1252  142.1983  170.0287 F       1  UNL1       -0.1659
     19 C         143.6993  138.3945  162.4622 C.3     1  UNL1        0.0730
     20 C         143.8031  138.3954  160.9658 C.3     1  UNL1        0.0294
     21 C         143.4659  139.6349  160.1912 C.3     1  UNL1        0.0666
     22 S         143.9004  140.9779  160.6987 S.3     1  UNL1       -0.0756
     23 C         140.7541  141.8134  160.9271 C.3     1  UNL1        0.1340
     24 N         141.7862  141.9615  162.0055 N.ar    1  UNL1       -0.2884
     25 C         143.2324  141.5775  161.9005 C.ar    1  UNL1        0.1932
     26 N         143.8934  141.8983  163.2082 N.ar    1  UNL1       -0.1221
     27 N         142.8557  142.4806  164.1215 N.ar    1  UNL1       -0.1282
     28 C         141.5533  142.5197  163.3782 C.ar    1  UNL1        0.1683
     29 C         140.2475  143.0278  163.9136 C.ar    1  UNL1        0.0551
     30 C         140.1701  144.3926  164.5310 C.ar    1  UNL1        0.0062
     31 C         138.8643  144.9007  165.0664 C.ar    1  UNL1        0.0208
     32 C         137.6358  144.0438  164.9843 C.ar    1  UNL1        0.0989
     33 N         137.7131  142.6790  164.3668 N.ar    1  UNL1       -0.2422
     34 C         139.0191  142.1710  163.8315 C.ar    1  UNL1        0.1019
@<TRIPOS>BOND
     1    23    24    1
     2    24    25   ar
     3    25    22    1
     4    22    21    1
     5    21    20    1
     6    20    19    1
     7    19     1    1
     8     1     2    1
     9     2     3    1
    10     4     3    1
    11     4     5    1
    12     5     6    1
    13     6     8    1
    14     8     9   ar
    15     9    10   ar
    16    10    11   ar
    17    11    15    1
    18    15    16    1
    19    15    17    1
    20    15    18    1
    21    11    12   ar
    22    12    13   ar
    23    13    14    1
    24     4     7    1
    25    25    26   ar
    26    26    27   ar
    27    27    28   ar
    28    28    29    1
    29    29    30   ar
    30    30    31   ar
    31    31    32   ar
    32    32    33   ar
    33    33    34   ar
    34    28    24   ar
    35    34    29   ar
    36     7     1    1
    37     6     4    1
    38    13     8   ar
@<TRIPOS>MOLECULE
*****
 34 38 0 0 0
SMALL
GASTEIGER

@<TRIPOS>ATOM
      1 N         138.6464  140.0286  162.4185 N.3     1  UNL1       -0.2726
      2 C         138.9123  138.8998  161.4671 C.3     1  UNL1        0.0721
      3 C         139.8238  137.9234  162.1496 C.3     1  UNL1        0.0190
      4 C         140.1212  138.4487  163.5228 C.3     1  UNL1        0.0202
      5 C         141.0093  137.3128  163.9363 C.3     1  UNL1        0.0062
      6 C         140.7434  138.4416  164.8877 C.3     1  UNL1        0.0259
      7 C         139.3935  139.7499  163.6890 C.3     1  UNL1        0.0724
      8 C         140.9491  139.0892  166.2249 C.ar    1  UNL1        0.0050
      9 C         139.7695  139.5864  167.0069 C.ar    1  UNL1       -0.0021
     10 C         139.9752  140.2340  168.3441 C.ar    1  UNL1        0.0037
     11 C         141.3604  140.3845  168.8994 C.ar    1  UNL1        0.0736
     12 C         142.5400  139.8873  168.1175 C.ar    1  UNL1        0.0332
     13 C         142.3343  139.2397  166.7802 C.ar    1  UNL1        0.1361
     14 F         143.5138  138.7426  165.9983 F       1  UNL1       -0.2045
     15 C         141.5661  141.0321  170.2367 C.3     1  UNL1        0.4186
     16 F         141.7719  141.6798  171.5740 F       1  UNL1       -0.1659
     17 F         140.3903  140.2777  170.7829 F       1  UNL1       -0.1659
     18 F         142.7420  141.7864  169.6905 F       1  UNL1       -0.1659
     19 C         137.7847  141.2260  162.1470 C.3     1  UNL1        0.0730
     20 C         137.3164  142.0861  163.2832 C.3     1  UNL1        0.0294
     21 C         137.4235  143.5792  163.1875 C.3     1  UNL1        0.0666
     22 S         138.3027  144.3308  164.1425 S.3     1  UNL1       -0.0756
     23 C         140.8531  143.3754  162.3446 C.3     1  UNL1        0.1340
     24 N         140.7319  143.2585  163.8351 N.ar    1  UNL1       -0.2884
     25 C         139.5596  143.6977  164.6615 C.ar    1  UNL1        0.1932
     26 N         139.8648  143.3926  166.0981 N.ar    1  UNL1       -0.1221
     27 N         141.2258  142.7648  166.1596 N.ar    1  UNL1       -0.1282
     28 C         141.7617  142.6820  164.7610 C.ar    1  UNL1        0.1683
     29 C         143.0935  142.1210  164.3589 C.ar    1  UNL1        0.0551
     30 C         143.1643  140.8374  163.5861 C.ar    1  UNL1        0.0062
     31 C         144.4961  140.2765  163.1840 C.ar    1  UNL1        0.0208
     32 C         145.7571  140.9993  163.5548 C.ar    1  UNL1        0.0989
     33 N         145.6863  142.2830  164.3276 N.ar    1  UNL1       -0.2422
     34 C         144.3545  142.8438  164.7296 C.ar    1  UNL1        0.1019
@<TRIPOS>BOND
     1    23    24    1
     2    24    25   ar
     3    25    22    1
     4    22    21    1
     5    21    20    1
     6    20    19    1
     7    19     1    1
     8     1     2    1
     9     2     3    1
    10     4     3    1
    11     4     5    1
    12     5     6    1
    13     6     8    1
    14     8     9   ar
    15     9    10   ar
    16    10    11   ar
    17    11    15    1
    18    15    16    1
    19    15    17    1
    20    15    18    1
    21    11    12   ar
    22    12    13   ar
    23    13    14    1
    24     4     7    1
    25    25    26   ar
    26    26    27   ar
    27    27    28   ar
    28    28    29    1
    29    29    30   ar
    30    30    31   ar
    31    31    32   ar
    32    32    33   ar
    33    33    34   ar
    34    28    24   ar
    35    34    29   ar
    36     7     1    1
    37     6     4    1
    38    13     8   ar
@<TRIPOS>MOLECULE
*****
 34 38 0 0 0
SMALL
GASTEIGER

@<TRIPOS>ATOM
      1 N         141.0648  143.6801  160.6377 N.3     1  UNL1       -0.2726
      2 C         140.9982  145.1768  160.7118 C.3     1  UNL1        0.0721
      3 C         140.2872  145.5469  161.9797 C.3     1  UNL1        0.0190
      4 C         139.9144  144.2789  162.6892 C.3     1  UNL1        0.0202
      5 C         139.2524  144.9431  163.8599 C.3     1  UNL1        0.0062
      6 C         139.3190  143.4465  163.7858 C.3     1  UNL1        0.0259
      7 C         140.3950  143.1252  161.8598 C.3     1  UNL1        0.0724
      8 C         139.0137  142.1017  164.3761 C.ar    1  UNL1        0.0050
      9 C         138.3289  141.0564  163.5465 C.ar    1  UNL1       -0.0021
     10 C         138.0236  139.7117  164.1368 C.ar    1  UNL1        0.0037
     11 C         138.4032  139.4123  165.5567 C.ar    1  UNL1        0.0736
     12 C         139.0881  140.4576  166.3864 C.ar    1  UNL1        0.0332
     13 C         139.3934  141.8023  165.7961 C.ar    1  UNL1        0.1361
     14 F         140.0782  142.8476  166.6256 F       1  UNL1       -0.2045
     15 C         138.0980  138.0676  166.1471 C.3     1  UNL1        0.4186
     16 F         137.7927  136.7227  166.7374 F       1  UNL1       -0.1659
     17 F         137.2428  138.7205  167.1922 F       1  UNL1       -0.1659
     18 F         138.9531  137.4146  165.1019 F       1  UNL1       -0.1659
     19 C         141.6913  142.8790  159.5351 C.3     1  UNL1        0.0730
     20 C         143.1837  142.8422  159.3895 C.3     1  UNL1        0.0294
     21 C         144.0150  142.0761  160.3755 C.3     1  UNL1        0.0666
     22 S         144.7082  142.7979  161.4929 S.3     1  UNL1       -0.0756
     23 C         144.7000  140.4381  163.7469 C.3     1  UNL1        0.1340
     24 N         144.0643  141.7898  163.8833 N.ar    1  UNL1       -0.2884
     25 C         144.0680  142.8745  162.8473 C.ar    1  UNL1        0.1932
     26 N         143.3193  144.0493  163.4033 N.ar    1  UNL1       -0.1221
     27 N         142.8528  143.6907  164.7831 N.ar    1  UNL1       -0.1282
     28 C         143.3132  142.2942  165.0798 C.ar    1  UNL1        0.1683
     29 C         143.0660  141.5355  166.3499 C.ar    1  UNL1        0.0551
     30 C         142.6683  140.0902  166.2948 C.ar    1  UNL1        0.0062
     31 C         142.4211  139.3314  167.5649 C.ar    1  UNL1        0.0208
     32 C         142.5715  140.0180  168.8901 C.ar    1  UNL1        0.0989
     33 N         142.9691  141.4633  168.9452 N.ar    1  UNL1       -0.2422
     34 C         143.2164  142.2220  167.6750 C.ar    1  UNL1        0.1019
@<TRIPOS>BOND
     1    23    24    1
     2    24    25   ar
     3    25    22    1
     4    22    21    1
     5    21    20    1
     6    20    19    1
     7    19     1    1
     8     1     2    1
     9     2     3    1
    10     4     3    1
    11     4     5    1
    12     5     6    1
    13     6     8    1
    14     8     9   ar
    15     9    10   ar
    16    10    11   ar
    17    11    15    1
    18    15    16    1
    19    15    17    1
    20    15    18    1
    21    11    12   ar
    22    12    13   ar
    23    13    14    1
    24     4     7    1
    25    25    26   ar
    26    26    27   ar
    27    27    28   ar
    28    28    29    1
    29    29    30   ar
    30    30    31   ar
    31    31    32   ar
    32    32    33   ar
    33    33    34   ar
    34    28    24   ar
    35    34    29   ar
    36     7     1    1
    37     6     4    1
    38    13     8   ar
