@<TRIPOS>MOLECULE
*****
 30 33 0 0 0
SMALL
GASTEIGER

@<TRIPOS>ATOM
      1 C         140.3883  138.8170  162.3502 C.ar    1  UNL1        0.0758
      2 C         140.5367  137.6939  163.3334 C.ar    1  UNL1        0.0181
      3 C         140.1871  137.9092  164.7762 C.ar    1  UNL1        0.0164
      4 C         139.6892  139.2474  165.2357 C.ar    1  UNL1        0.0594
      5 C         139.5408  140.3704  164.2525 C.ar    1  UNL1        0.0459
      6 C         139.8903  140.1552  162.8097 C.ar    1  UNL1        0.1546
      7 F         139.7419  141.2783  161.8265 F       1  UNL1       -0.2028
      8 C         140.7118  137.9946  155.5334 C.3     1  UNL1        0.0416
      9 C         141.7863  137.9561  156.5792 C.2     1  UNL1        0.0388
     10 C         141.4368  138.1713  158.0220 C.2     1  UNL1       -0.0352
     11 C         140.0127  138.4250  158.4189 C.3     1  UNL1        0.0438
     12 C         139.6632  138.6402  159.8616 C.3     1  UNL1        0.0952
     13 N         140.7378  138.6017  160.9075 N.pl3   1  UNL1       -0.3051
     14 C         142.1619  138.3481  160.5105 C.3     1  UNL1        0.0952
     15 C         142.5114  138.1329  159.0678 C.3     1  UNL1        0.0438
     16 C         143.2104  137.7025  156.1823 C.1     1  UNL1        0.0955
     17 N         144.6346  137.4489  155.7853 N.1     1  UNL1       -0.1912
     18 N         139.3397  139.4626  166.6784 N.am    1  UNL1       -0.2212
     19 C         140.1040  140.3073  167.6543 C.3     1  UNL1        0.1471
     20 C         139.4011  140.2377  168.9776 C.3     1  UNL1        0.2149
     21 O         138.2025  139.3498  168.8197 O.3     1  UNL1       -0.4342
     22 C         138.1645  138.8708  167.3987 C.2     1  UNL1        0.4088
     23 O         137.1325  137.9599  166.8027 O.2     1  UNL1       -0.2258
     24 C         139.8230  140.9336  170.2377 C.3     1  UNL1        0.1746
     25 N         141.0449  141.8035  170.2409 N.ar    1  UNL1       -0.2240
     26 C         142.4443  141.3591  169.9342 C.ar    1  UNL1        0.1480
     27 C         143.3464  142.5515  170.0552 C.ar    1  UNL1        0.2619
     28 F         144.8299  142.5609  169.8336 F       1  UNL1       -0.1798
     29 N         142.5045  143.7328  170.4365 N.ar    1  UNL1       -0.0985
     30 N         141.0821  143.2705  170.5513 N.ar    1  UNL1       -0.0614
@<TRIPOS>BOND
     1     8     9    1
     2     9    16    1
     3    16    17    3
     4     9    10    2
     5    10    11    1
     6    11    12    1
     7    12    13    1
     8    13     1    1
     9     1     2   ar
    10     2     3   ar
    11     3     4   ar
    12     4    18    1
    13    18    19    1
    14    19    20    1
    15    20    24    1
    16    24    25    1
    17    25    26   ar
    18    26    27   ar
    19    27    28    1
    20    27    29   ar
    21    29    30   ar
    22    20    21    1
    23    21    22    1
    24    22    23    2
    25     4     5   ar
    26     5     6   ar
    27     6     7    1
    28    13    14    1
    29    14    15    1
    30    15    10    1
    31     6     1   ar
    32    22    18   am
    33    30    25   ar
@<TRIPOS>MOLECULE
*****
 30 33 0 0 0
SMALL
GASTEIGER

@<TRIPOS>ATOM
      1 C         140.3816  139.3135  164.0111 C.ar    1  UNL1        0.0758
      2 C         140.2004  140.3911  162.9836 C.ar    1  UNL1        0.0181
      3 C         140.4514  140.0957  161.5346 C.ar    1  UNL1        0.0164
      4 C         140.8836  138.7226  161.1131 C.ar    1  UNL1        0.0594
      5 C         141.0648  137.6449  162.1406 C.ar    1  UNL1        0.0459
      6 C         140.8138  137.9404  163.5896 C.ar    1  UNL1        0.1546
      7 F         140.9951  136.8627  164.6172 F       1  UNL1       -0.2028
      8 C         138.1025  140.0431  170.4550 C.3     1  UNL1        0.0416
      9 C         139.3776  140.4954  169.8073 C.2     1  UNL1        0.0388
     10 C         139.6286  140.1999  168.3582 C.2     1  UNL1       -0.0352
     11 C         138.6046  139.4521  167.5570 C.3     1  UNL1        0.0438
     12 C         138.8556  139.1567  166.1079 C.3     1  UNL1        0.0952
     13 N         140.1306  139.6090  165.4602 N.pl3   1  UNL1       -0.3051
     14 C         141.1546  140.3568  166.2614 C.3     1  UNL1        0.0952
     15 C         140.9036  140.6523  167.7105 C.3     1  UNL1        0.0438
     16 C         140.4016  141.2432  170.6085 C.1     1  UNL1        0.0955
     17 N         141.4257  141.9910  171.4099 N.1     1  UNL1       -0.1912
     18 N         141.1346  138.4271  159.6640 N.am    1  UNL1       -0.2212
     19 C         142.3778  137.8130  159.0919 C.3     1  UNL1        0.1471
     20 C         142.1980  137.7002  157.6070 C.3     1  UNL1        0.2149
     21 O         140.8437  138.2446  157.2614 O.3     1  UNL1       -0.4342
     22 C         140.1865  138.6939  158.5327 C.2     1  UNL1        0.4088
     23 O         138.8209  139.3030  158.6518 O.2     1  UNL1       -0.2258
     24 C         143.1971  137.1411  156.6379 C.3     1  UNL1        0.1746
     25 N         143.2895  135.6588  156.4274 N.ar    1  UNL1       -0.2240
     26 C         143.2790  134.9540  155.1034 C.ar    1  UNL1        0.1480
     27 C         143.3917  133.4806  155.3617 C.ar    1  UNL1        0.2619
     28 F         143.4193  132.4023  154.3194 F       1  UNL1       -0.1798
     29 N         143.4717  133.2750  156.8454 N.ar    1  UNL1       -0.0985
     30 N         143.4086  134.6212  157.5040 N.ar    1  UNL1       -0.0614
@<TRIPOS>BOND
     1     8     9    1
     2     9    16    1
     3    16    17    3
     4     9    10    2
     5    10    11    1
     6    11    12    1
     7    12    13    1
     8    13     1    1
     9     1     2   ar
    10     2     3   ar
    11     3     4   ar
    12     4    18    1
    13    18    19    1
    14    19    20    1
    15    20    24    1
    16    24    25    1
    17    25    26   ar
    18    26    27   ar
    19    27    28    1
    20    27    29   ar
    21    29    30   ar
    22    20    21    1
    23    21    22    1
    24    22    23    2
    25     4     5   ar
    26     5     6   ar
    27     6     7    1
    28    13    14    1
    29    14    15    1
    30    15    10    1
    31     6     1   ar
    32    22    18   am
    33    30    25   ar
@<TRIPOS>MOLECULE
*****
 30 33 0 0 0
SMALL
GASTEIGER

@<TRIPOS>ATOM
      1 C         141.6063  140.3822  164.1321 C.ar    1  UNL1        0.0758
      2 C         141.0296  141.1741  162.9962 C.ar    1  UNL1        0.0181
      3 C         141.0012  140.5916  161.6142 C.ar    1  UNL1        0.0164
      4 C         141.5494  139.2173  161.3681 C.ar    1  UNL1        0.0594
      5 C         142.1261  138.4254  162.5040 C.ar    1  UNL1        0.0459
      6 C         142.1546  139.0079  163.8860 C.ar    1  UNL1        0.1546
      7 F         142.7314  138.2159  165.0220 F       1  UNL1       -0.2028
      8 C         143.0320  143.0451  170.3068 C.3     1  UNL1        0.0416
      9 C         141.7202  142.7121  169.6601 C.2     1  UNL1        0.0388
     10 C         141.6917  142.1296  168.2781 C.2     1  UNL1       -0.0352
     11 C         142.9751  141.8802  167.5428 C.3     1  UNL1        0.0438
     12 C         142.9466  141.2978  166.1608 C.3     1  UNL1        0.0952
     13 N         141.6348  140.9647  165.5141 N.pl3   1  UNL1       -0.3051
     14 C         140.3515  141.2141  166.2495 C.3     1  UNL1        0.0952
     15 C         140.3799  141.7965  167.6315 C.3     1  UNL1        0.0438
     16 C         140.4369  142.9614  170.3955 C.1     1  UNL1        0.0955
     17 N         139.1534  143.2108  171.1309 N.1     1  UNL1       -0.1912
     18 N         141.5210  138.6348  159.9861 N.am    1  UNL1       -0.2212
     19 C         142.6396  137.8898  159.3201 C.3     1  UNL1        0.1471
     20 C         142.1789  137.4896  157.9499 C.3     1  UNL1        0.2149
     21 O         140.7755  137.9873  157.7690 O.3     1  UNL1       -0.4342
     22 C         140.3689  138.6951  159.0275 C.2     1  UNL1        0.4088
     23 O         139.0429  139.3484  159.2825 O.2     1  UNL1       -0.2258
     24 C         142.9808  136.7258  156.9381 C.3     1  UNL1        0.1746
     25 N         142.7209  135.2642  156.7237 N.ar    1  UNL1       -0.2240
     26 C         141.8607  134.6702  155.6480 C.ar    1  UNL1        0.1480
     27 C         141.8838  133.1787  155.8067 C.ar    1  UNL1        0.2619
     28 F         141.1596  132.1888  154.9433 F       1  UNL1       -0.1798
     29 N         142.7582  132.8510  156.9806 N.ar    1  UNL1       -0.0985
     30 N         143.2755  134.1399  157.5473 N.ar    1  UNL1       -0.0614
@<TRIPOS>BOND
     1     8     9    1
     2     9    16    1
     3    16    17    3
     4     9    10    2
     5    10    11    1
     6    11    12    1
     7    12    13    1
     8    13     1    1
     9     1     2   ar
    10     2     3   ar
    11     3     4   ar
    12     4    18    1
    13    18    19    1
    14    19    20    1
    15    20    24    1
    16    24    25    1
    17    25    26   ar
    18    26    27   ar
    19    27    28    1
    20    27    29   ar
    21    29    30   ar
    22    20    21    1
    23    21    22    1
    24    22    23    2
    25     4     5   ar
    26     5     6   ar
    27     6     7    1
    28    13    14    1
    29    14    15    1
    30    15    10    1
    31     6     1   ar
    32    22    18   am
    33    30    25   ar
@<TRIPOS>MOLECULE
*****
 30 33 0 0 0
SMALL
GASTEIGER

@<TRIPOS>ATOM
      1 C         141.1463  139.5850  164.0780 C.ar    1  UNL1        0.0758
      2 C         141.0259  140.6859  163.0663 C.ar    1  UNL1        0.0181
      3 C         141.4404  140.4467  161.6447 C.ar    1  UNL1        0.0164
      4 C         141.9753  139.1066  161.2348 C.ar    1  UNL1        0.0594
      5 C         142.0957  138.0058  162.2465 C.ar    1  UNL1        0.0459
      6 C         141.6812  138.2450  163.6681 C.ar    1  UNL1        0.1546
      7 F         141.8016  137.1440  164.6798 F       1  UNL1       -0.2028
      8 C         138.1567  140.0511  170.2502 C.3     1  UNL1        0.0416
      9 C         139.4884  140.5419  169.7645 C.2     1  UNL1        0.0388
     10 C         139.9028  140.3027  168.3429 C.2     1  UNL1       -0.0352
     11 C         138.9857  139.5727  167.4069 C.3     1  UNL1        0.0438
     12 C         139.4002  139.3335  165.9853 C.3     1  UNL1        0.0952
     13 N         140.7318  139.8243  165.4997 N.pl3   1  UNL1       -0.3051
     14 C         141.6489  140.5542  166.4356 C.3     1  UNL1        0.0952
     15 C         141.2345  140.7934  167.8572 C.3     1  UNL1        0.0438
     16 C         140.4055  141.2718  170.7004 C.1     1  UNL1        0.0955
     17 N         141.3227  142.0018  171.6364 N.1     1  UNL1       -0.1912
     18 N         142.3898  138.8674  159.8132 N.am    1  UNL1       -0.2212
     19 C         141.8240  137.8267  158.8931 C.3     1  UNL1        0.1471
     20 C         142.5274  137.9430  157.5733 C.3     1  UNL1        0.2149
     21 O         143.5279  139.0557  157.6778 O.3     1  UNL1       -0.4342
     22 C         143.4428  139.6270  159.0621 C.2     1  UNL1        0.4088
     23 O         144.2663  140.7591  159.6008 O.2     1  UNL1       -0.2258
     24 C         142.2746  137.0954  156.3618 C.3     1  UNL1        0.1746
     25 N         142.4304  135.6057  156.4429 N.ar    1  UNL1       -0.2240
     26 C         141.7290  134.5978  155.5816 C.ar    1  UNL1        0.1480
     27 C         142.1800  133.2315  156.0059 C.ar    1  UNL1        0.2619
     28 F         141.7300  131.9301  155.4111 F       1  UNL1       -0.1798
     29 N         143.1601  133.3952  157.1295 N.ar    1  UNL1       -0.0985
     30 N         143.3149  134.8625  157.3996 N.ar    1  UNL1       -0.0614
@<TRIPOS>BOND
     1     8     9    1
     2     9    16    1
     3    16    17    3
     4     9    10    2
     5    10    11    1
     6    11    12    1
     7    12    13    1
     8    13     1    1
     9     1     2   ar
    10     2     3   ar
    11     3     4   ar
    12     4    18    1
    13    18    19    1
    14    19    20    1
    15    20    24    1
    16    24    25    1
    17    25    26   ar
    18    26    27   ar
    19    27    28    1
    20    27    29   ar
    21    29    30   ar
    22    20    21    1
    23    21    22    1
    24    22    23    2
    25     4     5   ar
    26     5     6   ar
    27     6     7    1
    28    13    14    1
    29    14    15    1
    30    15    10    1
    31     6     1   ar
    32    22    18   am
    33    30    25   ar
@<TRIPOS>MOLECULE
*****
 30 33 0 0 0
SMALL
GASTEIGER

@<TRIPOS>ATOM
      1 C         142.8998  139.8909  163.8695 C.ar    1  UNL1        0.0758
      2 C         141.6270  139.8417  163.0774 C.ar    1  UNL1        0.0181
      3 C         141.6700  139.5534  161.6060 C.ar    1  UNL1        0.0164
      4 C         142.9857  139.3142  160.9267 C.ar    1  UNL1        0.0594
      5 C         144.2586  139.3635  161.7188 C.ar    1  UNL1        0.0459
      6 C         144.2156  139.6518  163.1902 C.ar    1  UNL1        0.1546
      7 F         145.4885  139.7010  163.9823 F       1  UNL1       -0.2028
      8 C         142.5613  139.9209  170.7350 C.3     1  UNL1        0.0416
      9 C         142.7281  141.0443  169.7551 C.2     1  UNL1        0.0388
     10 C         142.7710  140.7559  168.2837 C.2     1  UNL1       -0.0352
     11 C         142.6472  139.3442  167.7922 C.3     1  UNL1        0.0438
     12 C         142.6901  139.0559  166.3208 C.3     1  UNL1        0.0952
     13 N         142.8569  140.1793  165.3409 N.pl3   1  UNL1       -0.3051
     14 C         142.9807  141.5910  165.8324 C.3     1  UNL1        0.0952
     15 C         142.9377  141.8793  167.3038 C.3     1  UNL1        0.0438
     16 C         142.8518  142.4560  170.2466 C.1     1  UNL1        0.0955
     17 N         142.9757  143.8678  170.7382 N.1     1  UNL1       -0.1912
     18 N         143.0287  139.0259  159.4553 N.am    1  UNL1       -0.2212
     19 C         142.4411  137.8253  158.7746 C.3     1  UNL1        0.1471
     20 C         142.7160  137.9449  157.3048 C.3     1  UNL1        0.2149
     21 O         143.4735  139.2194  157.0772 O.3     1  UNL1       -0.4342
     22 C         143.6668  139.8875  158.4063 C.2     1  UNL1        0.4088
     23 O         144.3739  141.1887  158.6444 O.2     1  UNL1       -0.2258
     24 C         142.3055  136.9625  156.2483 C.3     1  UNL1        0.1746
     25 N         142.5280  135.4946  156.4620 N.ar    1  UNL1       -0.2240
     26 C         143.6069  134.8798  157.3034 C.ar    1  UNL1        0.1480
     27 C         143.4565  133.3889  157.2333 C.ar    1  UNL1        0.2619
     28 F         144.3253  132.3815  157.9262 F       1  UNL1       -0.1798
     29 N         142.2846  133.0824  156.3485 N.ar    1  UNL1       -0.0985
     30 N         141.7108  134.3838  155.8719 N.ar    1  UNL1       -0.0614
@<TRIPOS>BOND
     1     8     9    1
     2     9    16    1
     3    16    17    3
     4     9    10    2
     5    10    11    1
     6    11    12    1
     7    12    13    1
     8    13     1    1
     9     1     2   ar
    10     2     3   ar
    11     3     4   ar
    12     4    18    1
    13    18    19    1
    14    19    20    1
    15    20    24    1
    16    24    25    1
    17    25    26   ar
    18    26    27   ar
    19    27    28    1
    20    27    29   ar
    21    29    30   ar
    22    20    21    1
    23    21    22    1
    24    22    23    2
    25     4     5   ar
    26     5     6   ar
    27     6     7    1
    28    13    14    1
    29    14    15    1
    30    15    10    1
    31     6     1   ar
    32    22    18   am
    33    30    25   ar
@<TRIPOS>MOLECULE
*****
 30 33 0 0 0
SMALL
GASTEIGER

@<TRIPOS>ATOM
      1 C         141.2052  139.7209  163.7784 C.ar    1  UNL1        0.0758
      2 C         141.1254  140.7905  162.7299 C.ar    1  UNL1        0.0181
      3 C         141.5227  140.4859  161.3159 C.ar    1  UNL1        0.0164
      4 C         141.9999  139.1116  160.9505 C.ar    1  UNL1        0.0594
      5 C         142.0797  138.0420  161.9990 C.ar    1  UNL1        0.0459
      6 C         141.6823  138.3466  163.4129 C.ar    1  UNL1        0.1546
      7 F         141.7622  137.2768  164.4615 F       1  UNL1       -0.2028
      8 C         140.3526  141.9904  170.2105 C.3     1  UNL1        0.0416
      9 C         139.6158  140.9394  169.4343 C.2     1  UNL1        0.0388
     10 C         140.0132  140.6348  168.0203 C.2     1  UNL1       -0.0352
     11 C         141.1472  141.3811  167.3826 C.3     1  UNL1        0.0438
     12 C         141.5446  141.0765  165.9686 C.3     1  UNL1        0.0952
     13 N         140.8078  140.0255  165.1924 N.pl3   1  UNL1       -0.3051
     14 C         139.6738  139.2791  165.8301 C.3     1  UNL1        0.0952
     15 C         139.2765  139.5837  167.2441 C.3     1  UNL1        0.0438
     16 C         138.4818  140.1930  170.0721 C.1     1  UNL1        0.0955
     17 N         137.3476  139.4466  170.7098 N.1     1  UNL1       -0.1912
     18 N         142.3972  138.8070  159.5365 N.am    1  UNL1       -0.2212
     19 C         141.8485  137.7004  158.6854 C.3     1  UNL1        0.1471
     20 C         142.5252  137.7650  157.3482 C.3     1  UNL1        0.2149
     21 O         143.4921  138.9115  157.3729 O.3     1  UNL1       -0.4342
     22 C         143.4129  139.5555  158.7253 C.2     1  UNL1        0.4088
     23 O         144.2097  140.7401  159.1857 O.2     1  UNL1       -0.2258
     24 C         142.2783  136.8446  156.1898 C.3     1  UNL1        0.1746
     25 N         142.4277  135.3623  156.3645 N.ar    1  UNL1       -0.2240
     26 C         143.4300  134.6748  157.2435 C.ar    1  UNL1        0.1480
     27 C         143.2228  133.1948  157.1132 C.ar    1  UNL1        0.2619
     28 F         144.0081  132.1291  157.8185 F       1  UNL1       -0.1798
     29 N         142.0924  132.9678  156.1537 N.ar    1  UNL1       -0.0985
     30 N         141.6010  134.3074  155.6910 N.ar    1  UNL1       -0.0614
@<TRIPOS>BOND
     1     8     9    1
     2     9    16    1
     3    16    17    3
     4     9    10    2
     5    10    11    1
     6    11    12    1
     7    12    13    1
     8    13     1    1
     9     1     2   ar
    10     2     3   ar
    11     3     4   ar
    12     4    18    1
    13    18    19    1
    14    19    20    1
    15    20    24    1
    16    24    25    1
    17    25    26   ar
    18    26    27   ar
    19    27    28    1
    20    27    29   ar
    21    29    30   ar
    22    20    21    1
    23    21    22    1
    24    22    23    2
    25     4     5   ar
    26     5     6   ar
    27     6     7    1
    28    13    14    1
    29    14    15    1
    30    15    10    1
    31     6     1   ar
    32    22    18   am
    33    30    25   ar
@<TRIPOS>MOLECULE
*****
 30 33 0 0 0
SMALL
GASTEIGER

@<TRIPOS>ATOM
      1 C         139.9268  141.0395  164.0046 C.ar    1  UNL1        0.0758
      2 C         138.4694  141.0694  163.6508 C.ar    1  UNL1        0.0181
      3 C         138.0473  141.2902  162.2285 C.ar    1  UNL1        0.0164
      4 C         139.0825  141.4811  161.1599 C.ar    1  UNL1        0.0594
      5 C         140.5398  141.4512  161.5137 C.ar    1  UNL1        0.0459
      6 C         140.9620  141.2304  162.9361 C.ar    1  UNL1        0.1546
      7 F         142.4194  141.2005  163.2898 F       1  UNL1       -0.2028
      8 C         142.5223  139.0121  170.0381 C.3     1  UNL1        0.0416
      9 C         141.6153  140.1562  169.6940 C.2     1  UNL1        0.0388
     10 C         141.1931  140.3770  168.2716 C.2     1  UNL1       -0.0352
     11 C         141.6780  139.4538  167.1934 C.3     1  UNL1        0.0438
     12 C         141.2559  139.6746  165.7711 C.3     1  UNL1        0.0952
     13 N         140.3489  140.8186  165.4270 N.pl3   1  UNL1       -0.3051
     14 C         139.8640  141.7418  166.5051 C.3     1  UNL1        0.0952
     15 C         140.2861  141.5210  167.9275 C.3     1  UNL1        0.0438
     16 C         141.1304  141.0794  170.7722 C.1     1  UNL1        0.0955
     17 N         140.6455  142.0026  171.8504 N.1     1  UNL1       -0.1912
     18 N         138.6604  141.7020  159.7376 N.am    1  UNL1       -0.2212
     19 C         137.9730  140.7014  158.8564 C.3     1  UNL1        0.1471
     20 C         137.7393  141.3432  157.5209 C.3     1  UNL1        0.2149
     21 O         138.2822  142.7404  157.5767 O.3     1  UNL1       -0.4342
     22 C         138.8515  142.9621  158.9467 C.2     1  UNL1        0.4088
     23 O         139.4983  144.2226  159.4392 O.2     1  UNL1       -0.2258
     24 C         137.0786  140.7006  156.3375 C.3     1  UNL1        0.1746
     25 N         135.5822  140.6725  156.2375 N.ar    1  UNL1       -0.2240
     26 C         134.7508  141.4266  155.2426 C.ar    1  UNL1        0.1480
     27 C         133.3092  141.1055  155.5051 C.ar    1  UNL1        0.2619
     28 F         132.1335  141.6426  154.7441 F       1  UNL1       -0.1798
     29 N         133.2498  140.1530  156.6623 N.ar    1  UNL1       -0.0985
     30 N         134.6546  139.8853  157.1150 N.ar    1  UNL1       -0.0614
@<TRIPOS>BOND
     1     8     9    1
     2     9    16    1
     3    16    17    3
     4     9    10    2
     5    10    11    1
     6    11    12    1
     7    12    13    1
     8    13     1    1
     9     1     2   ar
    10     2     3   ar
    11     3     4   ar
    12     4    18    1
    13    18    19    1
    14    19    20    1
    15    20    24    1
    16    24    25    1
    17    25    26   ar
    18    26    27   ar
    19    27    28    1
    20    27    29   ar
    21    29    30   ar
    22    20    21    1
    23    21    22    1
    24    22    23    2
    25     4     5   ar
    26     5     6   ar
    27     6     7    1
    28    13    14    1
    29    14    15    1
    30    15    10    1
    31     6     1   ar
    32    22    18   am
    33    30    25   ar
@<TRIPOS>MOLECULE
*****
 30 33 0 0 0
SMALL
GASTEIGER

@<TRIPOS>ATOM
      1 C         140.4386  139.8546  163.0415 C.ar    1  UNL1        0.0758
      2 C         141.6705  140.1017  162.2222 C.ar    1  UNL1        0.0181
      3 C         141.7331  139.6281  160.8003 C.ar    1  UNL1        0.0164
      4 C         140.5638  138.9075  160.1976 C.ar    1  UNL1        0.0594
      5 C         139.3318  138.6605  161.0169 C.ar    1  UNL1        0.0459
      6 C         139.2692  139.1340  162.4388 C.ar    1  UNL1        0.1546
      7 F         138.0372  138.8869  163.2580 F       1  UNL1       -0.2028
      8 C         140.4230  143.1953  169.0489 C.3     1  UNL1        0.0416
      9 C         140.1883  141.7488  168.7291 C.2     1  UNL1        0.0388
     10 C         140.2508  141.2752  167.3072 C.2     1  UNL1       -0.0352
     11 C         140.5482  142.2483  166.2051 C.3     1  UNL1        0.0438
     12 C         140.6108  141.7747  164.7832 C.3     1  UNL1        0.0952
     13 N         140.3760  140.3282  164.4634 N.pl3   1  UNL1       -0.3051
     14 C         140.0786  139.3551  165.5655 C.3     1  UNL1        0.0952
     15 C         140.0161  139.8287  166.9874 C.3     1  UNL1        0.0438
     16 C         139.8909  140.7758  169.8313 C.1     1  UNL1        0.0955
     17 N         139.5935  139.8026  170.9334 N.1     1  UNL1       -0.1912
     18 N         140.6263  138.4340  158.7757 N.am    1  UNL1       -0.2212
     19 C         141.6475  137.4965  158.2028 C.3     1  UNL1        0.1471
     20 C         141.3311  137.2979  156.7500 C.3     1  UNL1        0.2149
     21 O         140.1142  138.1127  156.4251 O.3     1  UNL1       -0.4342
     22 C         139.6787  138.8148  157.6771 C.2     1  UNL1        0.4088
     23 O         138.5021  139.7360  157.8075 O.2     1  UNL1       -0.2258
     24 C         142.0969  136.4359  155.7907 C.3     1  UNL1        0.1746
     25 N         142.3884  135.0056  156.1359 N.ar    1  UNL1       -0.2240
     26 C         143.5237  134.5176  156.9862 C.ar    1  UNL1        0.1480
     27 C         143.4327  133.0225  157.0674 C.ar    1  UNL1        0.2619
     28 F         144.3688  132.1216  157.8170 F       1  UNL1       -0.1798
     29 N         142.2413  132.5866  156.2672 N.ar    1  UNL1       -0.0985
     30 N         141.5958  133.8122  155.6916 N.ar    1  UNL1       -0.0614
@<TRIPOS>BOND
     1     8     9    1
     2     9    16    1
     3    16    17    3
     4     9    10    2
     5    10    11    1
     6    11    12    1
     7    12    13    1
     8    13     1    1
     9     1     2   ar
    10     2     3   ar
    11     3     4   ar
    12     4    18    1
    13    18    19    1
    14    19    20    1
    15    20    24    1
    16    24    25    1
    17    25    26   ar
    18    26    27   ar
    19    27    28    1
    20    27    29   ar
    21    29    30   ar
    22    20    21    1
    23    21    22    1
    24    22    23    2
    25     4     5   ar
    26     5     6   ar
    27     6     7    1
    28    13    14    1
    29    14    15    1
    30    15    10    1
    31     6     1   ar
    32    22    18   am
    33    30    25   ar
@<TRIPOS>MOLECULE
*****
 30 33 0 0 0
SMALL
GASTEIGER

@<TRIPOS>ATOM
      1 C         141.0113  143.1614  163.5040 C.ar    1  UNL1        0.0758
      2 C         140.6276  144.5295  163.0233 C.ar    1  UNL1        0.0181
      3 C         140.3354  144.7592  161.5701 C.ar    1  UNL1        0.0164
      4 C         140.4269  143.6209  160.5976 C.ar    1  UNL1        0.0594
      5 C         140.8106  142.2529  161.0783 C.ar    1  UNL1        0.0459
      6 C         141.1028  142.0231  162.5315 C.ar    1  UNL1        0.1546
      7 F         141.4865  140.6549  163.0122 F       1  UNL1       -0.2028
      8 C         143.5650  141.8662  169.7531 C.3     1  UNL1        0.0416
      9 C         142.1801  142.2424  169.3169 C.2     1  UNL1        0.0388
     10 C         141.8879  142.4722  167.8637 C.2     1  UNL1       -0.0352
     11 C         142.9806  142.3257  166.8467 C.3     1  UNL1        0.0438
     12 C         142.6884  142.5555  165.3934 C.3     1  UNL1        0.0952
     13 N         141.3035  142.9317  164.9572 N.pl3   1  UNL1       -0.3051
     14 C         140.2107  143.0781  165.9743 C.3     1  UNL1        0.0952
     15 C         140.5029  142.8483  167.4275 C.3     1  UNL1        0.0438
     16 C         141.0873  142.3888  170.3339 C.1     1  UNL1        0.0955
     17 N         139.9945  142.5352  171.3510 N.1     1  UNL1       -0.1912
     18 N         140.1347  143.8507  159.1444 N.am    1  UNL1       -0.2212
     19 C         140.8490  144.8135  158.2429 C.3     1  UNL1        0.1471
     20 C         140.2327  144.7159  156.8789 C.3     1  UNL1        0.2149
     21 O         139.1374  143.6926  156.9373 O.3     1  UNL1       -0.4342
     22 C         139.0769  143.1579  158.3375 C.2     1  UNL1        0.4088
     23 O         138.1255  142.1138  158.8421 O.2     1  UNL1       -0.2258
     24 C         140.6401  145.5032  155.6688 C.3     1  UNL1        0.1746
     25 N         140.0685  146.8704  155.4363 N.ar    1  UNL1       -0.2240
     26 C         139.0411  147.5532  156.2895 C.ar    1  UNL1        0.1480
     27 C         138.7616  148.8997  155.6903 C.ar    1  UNL1        0.2619
     28 F         137.7968  149.9181  156.2213 F       1  UNL1       -0.1798
     29 N         139.6163  149.0489  154.4667 N.ar    1  UNL1       -0.0985
     30 N         140.4241  147.7947  154.3098 N.ar    1  UNL1       -0.0614
@<TRIPOS>BOND
     1     8     9    1
     2     9    16    1
     3    16    17    3
     4     9    10    2
     5    10    11    1
     6    11    12    1
     7    12    13    1
     8    13     1    1
     9     1     2   ar
    10     2     3   ar
    11     3     4   ar
    12     4    18    1
    13    18    19    1
    14    19    20    1
    15    20    24    1
    16    24    25    1
    17    25    26   ar
    18    26    27   ar
    19    27    28    1
    20    27    29   ar
    21    29    30   ar
    22    20    21    1
    23    21    22    1
    24    22    23    2
    25     4     5   ar
    26     5     6   ar
    27     6     7    1
    28    13    14    1
    29    14    15    1
    30    15    10    1
    31     6     1   ar
    32    22    18   am
    33    30    25   ar
