@<TRIPOS>MOLECULE
*****
 35 39 0 0 0
SMALL
GASTEIGER

@<TRIPOS>ATOM
      1 N         140.6197  139.6797  164.7217 N.ar    1  UNL1       -0.3132
      2 C         141.5065  140.6150  165.4890 C.ar    1  UNL1        0.0771
      3 C         140.9898  140.6949  166.8949 C.ar    1  UNL1        0.0229
      4 C         139.7836  139.8090  166.9965 C.ar    1  UNL1        0.0668
      5 C         138.8641  139.4925  168.1385 C.ar    1  UNL1        0.1300
      6 N         139.0928  140.1200  169.4817 N.pl3   1  UNL1       -0.3425
      7 N         137.7158  138.5487  167.9374 N.ar    1  UNL1       -0.2094
      8 C         137.4871  137.9212  166.5943 C.ar    1  UNL1        0.2014
      9 N         138.4066  138.2376  165.4523 N.ar    1  UNL1       -0.2065
     10 C         139.5549  139.1815  165.6534 C.ar    1  UNL1        0.1482
     11 H         139.8464  140.7395  169.6137 H       1  UNL1        0.1437
     12 H         138.4892  139.9123  170.2312 H       1  UNL1        0.1437
     13 C         141.5762  141.5165  168.0045 C.ar    1  UNL1        0.0029
     14 C         142.9511  141.2088  168.5196 C.ar    1  UNL1        0.0010
     15 C         143.5375  142.0304  169.6292 C.ar    1  UNL1        0.0126
     16 C         142.7492  143.1597  170.2236 C.ar    1  UNL1        0.0705
     17 CL        143.3356  143.9813  171.3331 Cl      1  UNL1       -0.0810
     18 C         141.3744  143.4673  169.7084 C.ar    1  UNL1        0.0522
     19 N         140.5861  144.5966  170.3028 N.pl3   1  UNL1       -0.3563
     20 C         140.7880  142.6457  168.5989 C.ar    1  UNL1        0.0150
     21 H         140.9710  145.1358  171.0311 H       1  UNL1        0.1424
     22 H         139.6838  144.7985  169.9647 H       1  UNL1        0.1424
     23 C         140.9853  138.7817  161.2326 C.3     1  UNL1        0.0613
     24 C         140.7687  138.0202  162.5067 C.3     1  UNL1        0.0387
     25 C         140.7711  139.3077  163.2765 C.3     1  UNL1        0.0896
     26 C         140.9877  140.0691  162.0024 C.3     1  UNL1        0.0387
     27 C         140.3948  137.2994  154.5464 C.3     1  UNL1        0.0948
     28 C         141.5910  137.2940  155.4516 C.2     1  UNL1        0.2262
     29 O         142.9385  136.9168  154.9114 O.2     1  UNL1       -0.2749
     30 N         141.4395  137.6660  156.8968 N.am    1  UNL1       -0.2767
     31 C         140.0919  138.0432  157.4370 C.3     1  UNL1        0.1107
     32 C         139.9405  138.4151  158.8822 C.3     1  UNL1        0.0939
     33 N         141.1367  138.4098  159.7873 N.3     1  UNL1       -0.2710
     34 C         142.4842  138.0325  159.2471 C.3     1  UNL1        0.0939
     35 C         142.6356  137.6606  157.8020 C.3     1  UNL1        0.1107
@<TRIPOS>BOND
     1    27    28    1
     2    28    29    2
     3    28    30   am
     4    30    31    1
     5    31    32    1
     6    32    33    1
     7    23    33    1
     8    23    24    1
     9    24    25    1
    10    25     1    1
    11     1     2   ar
    12     2     3   ar
    13     3    13    1
    14    13    14   ar
    15    14    15   ar
    16    15    16   ar
    17    16    17    1
    18    16    18   ar
    19    18    19    1
    20    18    20   ar
    21     3     4   ar
    22     4     5   ar
    23     5     6    1
    24     5     7   ar
    25     7     8   ar
    26     8     9   ar
    27     9    10   ar
    28    25    26    1
    29    33    34    1
    30    34    35    1
    31    35    30    1
    32    26    23    1
    33    10     1   ar
    34    20    13   ar
    35    10     4   ar
    36    19    21    1
    37    19    22    1
    38     6    11    1
    39     6    12    1
@<TRIPOS>MOLECULE
*****
 35 39 0 0 0
SMALL
GASTEIGER

@<TRIPOS>ATOM
      1 N         142.1183  140.0085  163.2117 N.ar    1  UNL1       -0.3132
      2 C         141.4544  139.5139  164.4625 C.ar    1  UNL1        0.0771
      3 C         141.9147  140.3734  165.6024 C.ar    1  UNL1        0.0229
      4 C         142.8630  141.3992  165.0561 C.ar    1  UNL1        0.0668
      5 C         143.6281  142.5094  165.7132 C.ar    1  UNL1        0.1300
      6 N         143.5023  142.7349  167.1908 N.pl3   1  UNL1       -0.3425
      7 N         144.5191  143.3942  164.8927 N.ar    1  UNL1       -0.2094
      8 C         144.6449  143.1687  163.4151 C.ar    1  UNL1        0.2014
      9 N         143.8798  142.0585  162.7580 N.ar    1  UNL1       -0.2065
     10 C         142.9888  141.1737  163.5785 C.ar    1  UNL1        0.1482
     11 H         142.9175  142.1542  167.7294 H       1  UNL1        0.1437
     12 H         144.0045  143.4636  167.6221 H       1  UNL1        0.1437
     13 C         141.4995  140.2319  167.0369 C.ar    1  UNL1        0.0029
     14 C         140.1730  140.7660  167.4900 C.ar    1  UNL1        0.0010
     15 C         139.7579  140.6245  168.9244 C.ar    1  UNL1        0.0126
     16 C         140.6692  139.9490  169.9058 C.ar    1  UNL1        0.0705
     17 CL        140.2540  139.8075  171.3403 Cl      1  UNL1       -0.0810
     18 C         141.9956  139.4149  169.4528 C.ar    1  UNL1        0.0522
     19 N         142.9069  138.7394  170.4341 N.pl3   1  UNL1       -0.3563
     20 C         142.4108  139.5564  168.0183 C.ar    1  UNL1        0.0150
     21 H         142.6345  138.6465  171.3756 H       1  UNL1        0.1424
     22 H         143.7775  138.3889  170.1368 H       1  UNL1        0.1424
     23 C         141.6939  138.6316  159.8893 C.3     1  UNL1        0.0613
     24 C         142.0524  139.9796  160.4409 C.3     1  UNL1        0.0387
     25 C         141.9425  139.4381  161.8355 C.3     1  UNL1        0.0896
     26 C         141.5840  138.0902  161.2838 C.3     1  UNL1        0.0387
     27 C         142.1461  135.6888  153.6936 C.3     1  UNL1        0.0948
     28 C         140.9906  136.3501  154.3848 C.2     1  UNL1        0.2262
     29 O         139.6593  136.4410  153.6996 O.2     1  UNL1       -0.2749
     30 N         141.1665  136.9205  155.7608 N.am    1  UNL1       -0.2767
     31 C         142.4978  136.8296  156.4460 C.3     1  UNL1        0.1107
     32 C         142.6736  137.3999  157.8221 C.3     1  UNL1        0.0939
     33 N         141.5181  138.0612  158.5131 N.3     1  UNL1       -0.2710
     34 C         140.1868  138.1521  157.8280 C.3     1  UNL1        0.0939
     35 C         140.0110  137.5818  156.4520 C.3     1  UNL1        0.1107
@<TRIPOS>BOND
     1    27    28    1
     2    28    29    2
     3    28    30   am
     4    30    31    1
     5    31    32    1
     6    32    33    1
     7    23    33    1
     8    23    24    1
     9    24    25    1
    10    25     1    1
    11     1     2   ar
    12     2     3   ar
    13     3    13    1
    14    13    14   ar
    15    14    15   ar
    16    15    16   ar
    17    16    17    1
    18    16    18   ar
    19    18    19    1
    20    18    20   ar
    21     3     4   ar
    22     4     5   ar
    23     5     6    1
    24     5     7   ar
    25     7     8   ar
    26     8     9   ar
    27     9    10   ar
    28    25    26    1
    29    33    34    1
    30    34    35    1
    31    35    30    1
    32    26    23    1
    33    10     1   ar
    34    20    13   ar
    35    10     4   ar
    36    19    21    1
    37    19    22    1
    38     6    11    1
    39     6    12    1
@<TRIPOS>MOLECULE
*****
 35 39 0 0 0
SMALL
GASTEIGER

@<TRIPOS>ATOM
      1 N         140.4304  142.4775  163.0858 N.ar    1  UNL1       -0.3132
      2 C         141.0997  143.0780  164.2864 C.ar    1  UNL1        0.0771
      3 C         140.8352  142.1829  165.4607 C.ar    1  UNL1        0.0229
      4 C         140.0024  141.0293  164.9858 C.ar    1  UNL1        0.0668
      5 C         139.4395  139.8365  165.7003 C.ar    1  UNL1        0.1300
      6 N         139.6897  139.6545  167.1680 N.pl3   1  UNL1       -0.3425
      7 N         138.6265  138.8258  164.9470 N.ar    1  UNL1       -0.2094
      8 C         138.3763  139.0079  163.4793 C.ar    1  UNL1        0.2014
      9 N         138.9392  140.2006  162.7648 N.ar    1  UNL1       -0.2065
     10 C         139.7522  141.2113  163.5181 C.ar    1  UNL1        0.1482
     11 H         140.2233  140.3178  167.6624 H       1  UNL1        0.1437
     12 H         139.3203  138.8716  167.6370 H       1  UNL1        0.1437
     13 C         141.3186  142.4029  166.8635 C.ar    1  UNL1        0.0029
     14 C         142.7261  142.0427  167.2370 C.ar    1  UNL1        0.0010
     15 C         143.2094  142.2627  168.6398 C.ar    1  UNL1        0.0126
     16 C         142.2854  142.8428  169.6692 C.ar    1  UNL1        0.0705
     17 CL        142.7688  143.0628  171.0720 Cl      1  UNL1       -0.0810
     18 C         140.8780  143.2030  169.2957 C.ar    1  UNL1        0.0522
     19 N         139.9540  143.7831  170.3251 N.pl3   1  UNL1       -0.3563
     20 C         140.3947  142.9830  167.8929 C.ar    1  UNL1        0.0150
     21 H         140.2713  143.9275  171.2458 H       1  UNL1        0.1424
     22 H         139.0303  144.0195  170.0800 H       1  UNL1        0.1424
     23 C         140.4487  143.8446  159.7325 C.3     1  UNL1        0.0613
     24 C         141.4671  143.6993  160.8242 C.3     1  UNL1        0.0387
     25 C         140.4380  143.0437  161.6968 C.3     1  UNL1        0.0896
     26 C         139.4197  143.1890  160.6051 C.3     1  UNL1        0.0387
     27 C         140.2545  147.5772  153.9636 C.3     1  UNL1        0.0948
     28 C         140.4789  146.1094  154.1765 C.2     1  UNL1        0.2262
     29 O         140.7109  145.2079  153.0003 O.2     1  UNL1       -0.2749
     30 N         140.4714  145.5433  155.5655 N.am    1  UNL1       -0.2767
     31 C         140.2394  146.4448  156.7417 C.3     1  UNL1        0.1107
     32 C         140.2319  145.8786  158.1307 C.3     1  UNL1        0.0939
     33 N         140.4563  144.4108  158.3435 N.3     1  UNL1       -0.2710
     34 C         140.6882  143.5093  157.1673 C.3     1  UNL1        0.0939
     35 C         140.6958  144.0755  155.7784 C.3     1  UNL1        0.1107
@<TRIPOS>BOND
     1    27    28    1
     2    28    29    2
     3    28    30   am
     4    30    31    1
     5    31    32    1
     6    32    33    1
     7    23    33    1
     8    23    24    1
     9    24    25    1
    10    25     1    1
    11     1     2   ar
    12     2     3   ar
    13     3    13    1
    14    13    14   ar
    15    14    15   ar
    16    15    16   ar
    17    16    17    1
    18    16    18   ar
    19    18    19    1
    20    18    20   ar
    21     3     4   ar
    22     4     5   ar
    23     5     6    1
    24     5     7   ar
    25     7     8   ar
    26     8     9   ar
    27     9    10   ar
    28    25    26    1
    29    33    34    1
    30    34    35    1
    31    35    30    1
    32    26    23    1
    33    10     1   ar
    34    20    13   ar
    35    10     4   ar
    36    19    21    1
    37    19    22    1
    38     6    11    1
    39     6    12    1
@<TRIPOS>MOLECULE
*****
 35 39 0 0 0
SMALL
GASTEIGER

@<TRIPOS>ATOM
      1 N         142.8085  142.5201  162.8409 N.ar    1  UNL1       -0.3132
      2 C         143.3279  141.7919  164.0450 C.ar    1  UNL1        0.0771
      3 C         142.4172  142.0940  165.1979 C.ar    1  UNL1        0.0229
      4 C         141.3350  143.0090  164.7064 C.ar    1  UNL1        0.0668
      5 C         140.1606  143.6363  165.3972 C.ar    1  UNL1        0.1300
      6 N         139.9187  143.3730  166.8539 N.pl3   1  UNL1       -0.3425
      7 N         139.2279  144.5270  164.6311 N.ar    1  UNL1       -0.2094
      8 C         139.4697  144.7903  163.1743 C.ar    1  UNL1        0.2014
      9 N         140.6442  144.1630  162.4836 N.ar    1  UNL1       -0.2065
     10 C         141.5768  143.2723  163.2497 C.ar    1  UNL1        0.1482
     11 H         140.5309  142.7884  167.3567 H       1  UNL1        0.1437
     12 H         139.1479  143.7847  167.3073 H       1  UNL1        0.1437
     13 C         142.5632  141.5727  166.5969 C.ar    1  UNL1        0.0029
     14 C         142.0603  140.2025  166.9430 C.ar    1  UNL1        0.0010
     15 C         142.2063  139.6812  168.3419 C.ar    1  UNL1        0.0126
     16 C         142.8550  140.5301  169.3947 C.ar    1  UNL1        0.0705
     17 CL        143.0009  140.0088  170.7937 Cl      1  UNL1       -0.0810
     18 C         143.3578  141.9003  169.0486 C.ar    1  UNL1        0.0522
     19 N         144.0066  142.7492  170.1015 N.pl3   1  UNL1       -0.3563
     20 C         143.2119  142.4215  167.6497 C.ar    1  UNL1        0.0150
     21 H         144.1024  142.4070  171.0196 H       1  UNL1        0.1424
     22 H         144.3366  143.6485  169.8743 H       1  UNL1        0.1424
     23 C         144.2711  142.4710  159.5284 C.3     1  UNL1        0.0613
     24 C         143.1725  143.2478  160.1913 C.3     1  UNL1        0.0387
     25 C         143.4144  142.4997  161.4688 C.3     1  UNL1        0.0896
     26 C         144.5130  141.7229  160.8059 C.3     1  UNL1        0.0387
     27 C         148.1611  142.6509  153.8639 C.3     1  UNL1        0.0948
     28 C         146.6945  142.3894  154.0402 C.2     1  UNL1        0.2262
     29 O         145.8339  142.1076  152.8445 O.2     1  UNL1       -0.2749
     30 N         146.0888  142.4098  155.4123 N.am    1  UNL1       -0.2767
     31 C         146.9494  142.6917  156.6081 C.3     1  UNL1        0.1107
     32 C         146.3435  142.7120  157.9801 C.3     1  UNL1        0.0939
     33 N         144.8770  142.4506  158.1564 N.3     1  UNL1       -0.2710
     34 C         144.0164  142.1687  156.9606 C.3     1  UNL1        0.0939
     35 C         144.6222  142.1484  155.5886 C.3     1  UNL1        0.1107
@<TRIPOS>BOND
     1    27    28    1
     2    28    29    2
     3    28    30   am
     4    30    31    1
     5    31    32    1
     6    32    33    1
     7    23    33    1
     8    23    24    1
     9    24    25    1
    10    25     1    1
    11     1     2   ar
    12     2     3   ar
    13     3    13    1
    14    13    14   ar
    15    14    15   ar
    16    15    16   ar
    17    16    17    1
    18    16    18   ar
    19    18    19    1
    20    18    20   ar
    21     3     4   ar
    22     4     5   ar
    23     5     6    1
    24     5     7   ar
    25     7     8   ar
    26     8     9   ar
    27     9    10   ar
    28    25    26    1
    29    33    34    1
    30    34    35    1
    31    35    30    1
    32    26    23    1
    33    10     1   ar
    34    20    13   ar
    35    10     4   ar
    36    19    21    1
    37    19    22    1
    38     6    11    1
    39     6    12    1
@<TRIPOS>MOLECULE
*****
 35 39 0 0 0
SMALL
GASTEIGER

@<TRIPOS>ATOM
      1 N         141.9209  142.3809  160.7043 N.ar    1  UNL1       -0.3132
      2 C         141.5917  141.3116  161.7034 C.ar    1  UNL1        0.0771
      3 C         140.5263  141.8422  162.6162 C.ar    1  UNL1        0.0229
      4 C         140.1969  143.2395  162.1813 C.ar    1  UNL1        0.0668
      5 C         139.2235  144.2517  162.7085 C.ar    1  UNL1        0.1300
      6 N         138.3616  143.9187  163.8902 N.pl3   1  UNL1       -0.3425
      7 N         139.1121  145.5967  162.0541 N.ar    1  UNL1       -0.2094
      8 C         139.9740  145.9297  160.8725 C.ar    1  UNL1        0.2014
      9 N         140.9473  144.9175  160.3452 N.ar    1  UNL1       -0.2065
     10 C         141.0588  143.5724  160.9996 C.ar    1  UNL1        0.1482
     11 H         138.4348  143.0359  164.3197 H       1  UNL1        0.1437
     12 H         137.7228  144.5831  164.2362 H       1  UNL1        0.1437
     13 C         139.9001  141.1051  163.7627 C.ar    1  UNL1        0.0029
     14 C         138.8164  140.1001  163.5060 C.ar    1  UNL1        0.0010
     15 C         138.1902  139.3630  164.6525 C.ar    1  UNL1        0.0126
     16 C         138.6477  139.6306  166.0557 C.ar    1  UNL1        0.0705
     17 CL        138.0215  138.8934  167.2022 Cl      1  UNL1       -0.0810
     18 C         139.7313  140.6355  166.3124 C.ar    1  UNL1        0.0522
     19 N         140.1888  140.9032  167.7157 N.pl3   1  UNL1       -0.3563
     20 C         140.3575  141.3727  165.1659 C.ar    1  UNL1        0.0150
     21 H         139.7778  140.4193  168.4681 H       1  UNL1        0.1424
     22 H         140.9001  141.5627  167.8842 H       1  UNL1        0.1424
     23 C         144.3671  142.1302  158.0459 C.3     1  UNL1        0.0613
     24 C         143.4525  143.2081  158.5474 C.3     1  UNL1        0.0387
     25 C         142.9341  142.2770  159.6032 C.3     1  UNL1        0.0896
     26 C         143.8488  141.1992  159.1016 C.3     1  UNL1        0.0387
     27 C         149.8006  142.2673  153.8377 C.3     1  UNL1        0.0948
     28 C         148.4200  141.7145  153.6413 C.2     1  UNL1        0.2262
     29 O         148.0528  141.0577  152.3437 O.2     1  UNL1       -0.2749
     30 N         147.4069  141.8184  154.7425 N.am    1  UNL1       -0.2767
     31 C         147.7741  142.4752  156.0401 C.3     1  UNL1        0.1107
     32 C         146.7608  142.5791  157.1412 C.3     1  UNL1        0.0939
     33 N         145.3804  142.0262  156.9448 N.3     1  UNL1       -0.2710
     34 C         145.0131  141.3695  155.6472 C.3     1  UNL1        0.0939
     35 C         146.0263  141.2656  154.5461 C.3     1  UNL1        0.1107
@<TRIPOS>BOND
     1    27    28    1
     2    28    29    2
     3    28    30   am
     4    30    31    1
     5    31    32    1
     6    32    33    1
     7    23    33    1
     8    23    24    1
     9    24    25    1
    10    25     1    1
    11     1     2   ar
    12     2     3   ar
    13     3    13    1
    14    13    14   ar
    15    14    15   ar
    16    15    16   ar
    17    16    17    1
    18    16    18   ar
    19    18    19    1
    20    18    20   ar
    21     3     4   ar
    22     4     5   ar
    23     5     6    1
    24     5     7   ar
    25     7     8   ar
    26     8     9   ar
    27     9    10   ar
    28    25    26    1
    29    33    34    1
    30    34    35    1
    31    35    30    1
    32    26    23    1
    33    10     1   ar
    34    20    13   ar
    35    10     4   ar
    36    19    21    1
    37    19    22    1
    38     6    11    1
    39     6    12    1
@<TRIPOS>MOLECULE
*****
 35 39 0 0 0
SMALL
GASTEIGER

@<TRIPOS>ATOM
      1 N         142.2473  139.1267  160.8081 N.ar    1  UNL1       -0.3132
      2 C         141.9097  137.9566  159.9324 C.ar    1  UNL1        0.0771
      3 C         142.5253  138.1931  158.5851 C.ar    1  UNL1        0.0229
      4 C         143.2434  139.5094  158.6282 C.ar    1  UNL1        0.0668
      5 C         144.0315  140.2570  157.5939 C.ar    1  UNL1        0.1300
      6 N         144.2033  139.6800  156.2200 N.pl3   1  UNL1       -0.3425
      7 N         144.6478  141.5817  157.9334 N.ar    1  UNL1       -0.2094
      8 C         144.4760  142.1587  159.3073 C.ar    1  UNL1        0.2014
      9 N         143.6879  141.4110  160.3416 N.ar    1  UNL1       -0.2065
     10 C         143.0716  140.0864  160.0021 C.ar    1  UNL1        0.1482
     11 H         143.7988  138.8106  155.9971 H       1  UNL1        0.1437
     12 H         144.7206  140.1707  155.5411 H       1  UNL1        0.1437
     13 C         142.4381  137.2746  157.4024 C.ar    1  UNL1        0.0029
     14 C         141.4575  137.5582  156.3033 C.ar    1  UNL1        0.0010
     15 C         141.3703  136.6397  155.1206 C.ar    1  UNL1        0.0126
     16 C         142.2637  135.4377  155.0370 C.ar    1  UNL1        0.0705
     17 CL        142.1765  134.5192  153.8543 Cl      1  UNL1       -0.0810
     18 C         143.2443  135.1542  156.1361 C.ar    1  UNL1        0.0522
     19 N         144.1377  133.9521  156.0525 N.pl3   1  UNL1       -0.3563
     20 C         143.3314  136.0726  157.3188 C.ar    1  UNL1        0.0150
     21 H         144.0804  133.3493  155.2762 H       1  UNL1        0.1424
     22 H         144.7812  133.7661  156.7739 H       1  UNL1        0.1424
     23 C         141.2480  139.5589  164.2619 C.3     1  UNL1        0.0613
     24 C         141.9047  138.4622  163.4770 C.3     1  UNL1        0.0387
     25 C         141.8334  139.3058  162.2387 C.3     1  UNL1        0.0896
     26 C         141.1766  140.4024  163.0236 C.3     1  UNL1        0.0387
     27 C         140.5776  140.7893  170.9915 C.3     1  UNL1        0.0948
     28 C         139.5921  140.2751  169.9842 C.2     1  UNL1        0.2262
     29 O         138.1927  139.9400  170.4076 O.2     1  UNL1       -0.2749
     30 N         140.0061  140.0961  168.5537 N.am    1  UNL1       -0.2767
     31 C         141.4056  140.4312  168.1303 C.3     1  UNL1        0.1107
     32 C         141.8195  140.2521  166.6997 C.3     1  UNL1        0.0939
     33 N         140.8340  139.7380  165.6925 N.3     1  UNL1       -0.2710
     34 C         139.4346  139.4029  166.1159 C.3     1  UNL1        0.0939
     35 C         139.0206  139.5819  167.5464 C.3     1  UNL1        0.1107
@<TRIPOS>BOND
     1    27    28    1
     2    28    29    2
     3    28    30   am
     4    30    31    1
     5    31    32    1
     6    32    33    1
     7    23    33    1
     8    23    24    1
     9    24    25    1
    10    25     1    1
    11     1     2   ar
    12     2     3   ar
    13     3    13    1
    14    13    14   ar
    15    14    15   ar
    16    15    16   ar
    17    16    17    1
    18    16    18   ar
    19    18    19    1
    20    18    20   ar
    21     3     4   ar
    22     4     5   ar
    23     5     6    1
    24     5     7   ar
    25     7     8   ar
    26     8     9   ar
    27     9    10   ar
    28    25    26    1
    29    33    34    1
    30    34    35    1
    31    35    30    1
    32    26    23    1
    33    10     1   ar
    34    20    13   ar
    35    10     4   ar
    36    19    21    1
    37    19    22    1
    38     6    11    1
    39     6    12    1
@<TRIPOS>MOLECULE
*****
 35 39 0 0 0
SMALL
GASTEIGER

@<TRIPOS>ATOM
      1 N         142.1155  140.5296  163.2889 N.ar    1  UNL1       -0.3132
      2 C         142.5548  141.1317  164.5906 C.ar    1  UNL1        0.0771
      3 C         141.6028  140.6763  165.6566 C.ar    1  UNL1        0.0229
      4 C         140.5752  139.7927  165.0137 C.ar    1  UNL1        0.0668
      5 C         139.3919  139.0590  165.5717 C.ar    1  UNL1        0.1300
      6 N         139.0751  139.1496  167.0351 N.pl3   1  UNL1       -0.3425
      7 N         138.5254  138.2347  164.6664 N.ar    1  UNL1       -0.2094
      8 C         138.8422  138.1441  163.2030 C.ar    1  UNL1        0.2014
      9 N         140.0255  138.8778  162.6450 N.ar    1  UNL1       -0.2065
     10 C         140.8920  139.7021  163.5503 C.ar    1  UNL1        0.1482
     11 H         139.6438  139.6907  167.6293 H       1  UNL1        0.1437
     12 H         138.2984  138.6681  167.4013 H       1  UNL1        0.1437
     13 C         141.6672  141.0404  167.1103 C.ar    1  UNL1        0.0029
     14 C         140.9597  142.2657  167.6086 C.ar    1  UNL1        0.0010
     15 C         141.0240  142.6298  169.0623 C.ar    1  UNL1        0.0126
     16 C         141.7959  141.7688  170.0177 C.ar    1  UNL1        0.0705
     17 CL        141.8603  142.1329  171.4714 Cl      1  UNL1       -0.0810
     18 C         142.5034  140.5436  169.5194 C.ar    1  UNL1        0.0522
     19 N         143.2752  139.6825  170.4748 N.pl3   1  UNL1       -0.3563
     20 C         142.4390  140.1794  168.0657 C.ar    1  UNL1        0.0150
     21 H         143.3175  139.9215  171.4289 H       1  UNL1        0.1424
     22 H         143.7396  138.8784  170.1478 H       1  UNL1        0.1424
     23 C         143.7257  140.9927  160.0784 C.3     1  UNL1        0.0613
     24 C         142.4369  141.4504  160.6944 C.3     1  UNL1        0.0387
     25 C         142.7825  140.7214  161.9591 C.3     1  UNL1        0.0896
     26 C         144.0713  140.2638  161.3431 C.3     1  UNL1        0.0387
     27 C         147.3486  142.8987  154.5564 C.3     1  UNL1        0.0948
     28 C         146.3937  141.7597  154.7593 C.2     1  UNL1        0.2262
     29 O         146.1059  140.8126  153.6323 O.2     1  UNL1       -0.2749
     30 N         145.7268  141.5681  156.0891 N.am    1  UNL1       -0.2767
     31 C         146.0146  142.5152  157.2160 C.3     1  UNL1        0.1107
     32 C         145.3475  142.3234  158.5458 C.3     1  UNL1        0.0939
     33 N         144.3927  141.1845  158.7486 N.3     1  UNL1       -0.2710
     34 C         144.1049  140.2374  157.6217 C.3     1  UNL1        0.0939
     35 C         144.7719  140.4291  156.2920 C.3     1  UNL1        0.1107
@<TRIPOS>BOND
     1    27    28    1
     2    28    29    2
     3    28    30   am
     4    30    31    1
     5    31    32    1
     6    32    33    1
     7    23    33    1
     8    23    24    1
     9    24    25    1
    10    25     1    1
    11     1     2   ar
    12     2     3   ar
    13     3    13    1
    14    13    14   ar
    15    14    15   ar
    16    15    16   ar
    17    16    17    1
    18    16    18   ar
    19    18    19    1
    20    18    20   ar
    21     3     4   ar
    22     4     5   ar
    23     5     6    1
    24     5     7   ar
    25     7     8   ar
    26     8     9   ar
    27     9    10   ar
    28    25    26    1
    29    33    34    1
    30    34    35    1
    31    35    30    1
    32    26    23    1
    33    10     1   ar
    34    20    13   ar
    35    10     4   ar
    36    19    21    1
    37    19    22    1
    38     6    11    1
    39     6    12    1
@<TRIPOS>MOLECULE
*****
 35 39 0 0 0
SMALL
GASTEIGER

@<TRIPOS>ATOM
      1 N         142.8054  142.6132  161.1885 N.ar    1  UNL1       -0.3132
      2 C         143.9787  142.0285  160.4595 C.ar    1  UNL1        0.0771
      3 C         144.0071  142.6168  159.0799 C.ar    1  UNL1        0.0229
      4 C         142.8514  143.5650  158.9564 C.ar    1  UNL1        0.0668
      5 C         142.3794  144.4302  157.8256 C.ar    1  UNL1        0.1300
      6 N         143.1221  144.4324  156.5224 N.pl3   1  UNL1       -0.3425
      7 N         141.1647  145.2931  157.9981 N.ar    1  UNL1       -0.2094
      8 C         140.4220  145.2909  159.3013 C.ar    1  UNL1        0.2014
      9 N         140.8940  144.4257  160.4321 N.ar    1  UNL1       -0.2065
     10 C         142.1087  143.5628  160.2596 C.ar    1  UNL1        0.1482
     11 H         143.9194  143.8660  156.4092 H       1  UNL1        0.1437
     12 H         142.8123  145.0003  155.7803 H       1  UNL1        0.1437
     13 C         145.0144  142.3106  158.0114 C.ar    1  UNL1        0.0029
     14 C         146.3241  143.0415  157.9837 C.ar    1  UNL1        0.0010
     15 C         147.3313  142.7354  156.9152 C.ar    1  UNL1        0.0126
     16 C         147.0290  141.6983  155.8745 C.ar    1  UNL1        0.0705
     17 CL        148.0363  141.3921  154.8060 Cl      1  UNL1       -0.0810
     18 C         145.7194  140.9675  155.9022 C.ar    1  UNL1        0.0522
     19 N         145.4171  139.9304  154.8615 N.pl3   1  UNL1       -0.3563
     20 C         144.7122  141.2736  156.9707 C.ar    1  UNL1        0.0150
     21 H         146.0783  139.7295  154.1602 H       1  UNL1        0.1424
     22 H         144.5576  139.4507  154.8797 H       1  UNL1        0.1424
     23 C         141.8266  141.8637  164.5936 C.3     1  UNL1        0.0613
     24 C         142.9354  141.4191  163.6864 C.3     1  UNL1        0.0387
     25 C         142.3999  142.3028  162.5989 C.3     1  UNL1        0.0896
     26 C         141.2912  142.7473  163.5061 C.3     1  UNL1        0.0387
     27 C         141.0542  141.0890  171.3799 C.3     1  UNL1        0.0948
     28 C         140.2047  140.6219  170.2351 C.2     1  UNL1        0.2262
     29 O         138.9498  139.8444  170.5009 O.2     1  UNL1       -0.2749
     30 N         140.6103  140.9324  168.8248 N.am    1  UNL1       -0.2767
     31 C         141.8651  141.7099  168.5591 C.3     1  UNL1        0.1107
     32 C         142.2706  142.0204  167.1487 C.3     1  UNL1        0.0939
     33 N         141.4212  141.5533  166.0040 N.3     1  UNL1       -0.2710
     34 C         140.1663  140.7757  166.2698 C.3     1  UNL1        0.0939
     35 C         139.7608  140.4653  167.6801 C.3     1  UNL1        0.1107
@<TRIPOS>BOND
     1    27    28    1
     2    28    29    2
     3    28    30   am
     4    30    31    1
     5    31    32    1
     6    32    33    1
     7    23    33    1
     8    23    24    1
     9    24    25    1
    10    25     1    1
    11     1     2   ar
    12     2     3   ar
    13     3    13    1
    14    13    14   ar
    15    14    15   ar
    16    15    16   ar
    17    16    17    1
    18    16    18   ar
    19    18    19    1
    20    18    20   ar
    21     3     4   ar
    22     4     5   ar
    23     5     6    1
    24     5     7   ar
    25     7     8   ar
    26     8     9   ar
    27     9    10   ar
    28    25    26    1
    29    33    34    1
    30    34    35    1
    31    35    30    1
    32    26    23    1
    33    10     1   ar
    34    20    13   ar
    35    10     4   ar
    36    19    21    1
    37    19    22    1
    38     6    11    1
    39     6    12    1
@<TRIPOS>MOLECULE
*****
 35 39 0 0 0
SMALL
GASTEIGER

@<TRIPOS>ATOM
      1 N         141.5315  140.6523  159.1010 N.ar    1  UNL1       -0.3132
      2 C         140.7756  140.8222  160.3854 C.ar    1  UNL1        0.0771
      3 C         140.7372  142.2860  160.7104 C.ar    1  UNL1        0.0229
      4 C         141.4693  143.0208  159.6268 C.ar    1  UNL1        0.0668
      5 C         141.7523  144.4789  159.4174 C.ar    1  UNL1        0.1300
      6 N         141.2614  145.4886  160.4121 N.pl3   1  UNL1       -0.3425
      7 N         142.5263  144.9272  158.2133 N.ar    1  UNL1       -0.2094
      8 C         143.0172  143.9174  157.2186 C.ar    1  UNL1        0.2014
      9 N         142.7342  142.4594  157.4280 N.ar    1  UNL1       -0.2065
     10 C         141.9602  142.0111  158.6321 C.ar    1  UNL1        0.1482
     11 H         140.7534  145.1944  161.2024 H       1  UNL1        0.1437
     12 H         141.4472  146.4456  160.2746 H       1  UNL1        0.1437
     13 C         140.0817  142.9062  161.9086 C.ar    1  UNL1        0.0029
     14 C         138.7965  143.6639  161.7523 C.ar    1  UNL1        0.0010
     15 C         138.1410  144.2841  162.9505 C.ar    1  UNL1        0.0126
     16 C         138.7706  144.1468  164.3049 C.ar    1  UNL1        0.0705
     17 CL        138.1152  144.7670  165.5031 Cl      1  UNL1       -0.0810
     18 C         140.0558  143.3891  164.4612 C.ar    1  UNL1        0.0522
     19 N         140.6854  143.2517  165.8157 N.pl3   1  UNL1       -0.3563
     20 C         140.7112  142.7689  163.2630 C.ar    1  UNL1        0.0150
     21 H         140.2552  143.6588  166.6021 H       1  UNL1        0.1424
     22 H         141.5289  142.7545  165.9183 H       1  UNL1        0.1424
     23 C         142.2033  137.5126  157.4259 C.3     1  UNL1        0.0613
     24 C         141.0314  138.0935  158.1603 C.3     1  UNL1        0.0387
     25 C         141.8098  139.3518  158.4071 C.3     1  UNL1        0.0896
     26 C         142.9816  138.7709  157.6728 C.3     1  UNL1        0.0387
     27 C         144.0703  131.2271  155.3628 C.3     1  UNL1        0.0948
     28 C         143.3165  132.3110  154.6505 C.2     1  UNL1        0.2262
     29 O         142.8412  132.0943  153.2445 O.2     1  UNL1       -0.2749
     30 N         143.0383  133.6113  155.3444 N.am    1  UNL1       -0.2767
     31 C         143.5137  133.8280  156.7505 C.3     1  UNL1        0.1107
     32 C         143.2353  135.1284  157.4443 C.3     1  UNL1        0.0939
     33 N         142.4816  136.2122  156.7321 N.3     1  UNL1       -0.2710
     34 C         142.0063  135.9956  155.3260 C.3     1  UNL1        0.0939
     35 C         142.2846  134.6952  154.6322 C.3     1  UNL1        0.1107
@<TRIPOS>BOND
     1    27    28    1
     2    28    29    2
     3    28    30   am
     4    30    31    1
     5    31    32    1
     6    32    33    1
     7    23    33    1
     8    23    24    1
     9    24    25    1
    10    25     1    1
    11     1     2   ar
    12     2     3   ar
    13     3    13    1
    14    13    14   ar
    15    14    15   ar
    16    15    16   ar
    17    16    17    1
    18    16    18   ar
    19    18    19    1
    20    18    20   ar
    21     3     4   ar
    22     4     5   ar
    23     5     6    1
    24     5     7   ar
    25     7     8   ar
    26     8     9   ar
    27     9    10   ar
    28    25    26    1
    29    33    34    1
    30    34    35    1
    31    35    30    1
    32    26    23    1
    33    10     1   ar
    34    20    13   ar
    35    10     4   ar
    36    19    21    1
    37    19    22    1
    38     6    11    1
    39     6    12    1
