@<TRIPOS>MOLECULE
*****
 40 44 0 0 0
SMALL
GASTEIGER

@<TRIPOS>ATOM
      1 N         141.9543  144.0499  159.6850 N.3     1  UNL1       -0.1520
      2 C         141.7198  144.4950  161.0981 C.3     1  UNL1        0.1173
      3 C         142.6322  144.0272  162.1930 C.3     1  UNL1        0.1126
      4 N         143.7790  143.1143  161.8748 N.am    1  UNL1       -0.2766
      5 C         144.6914  142.6465  162.9696 C.2     1  UNL1        0.2256
      6 O         145.8382  141.7336  162.6514 O.2     1  UNL1       -0.2749
      7 C         144.0135  142.6692  160.4617 C.3     1  UNL1        0.1126
      8 C         143.1011  143.1370  159.3668 C.3     1  UNL1        0.1173
      9 S         141.0419  144.5177  158.5901 S.O2    1  UNL1        0.0634
     10 O         141.7952  145.8127  158.5158 O.2     1  UNL1       -0.1528
     11 O         140.2887  143.2227  158.6645 O.2     1  UNL1       -0.1528
     12 C         139.1179  146.9153  156.0803 C.ar    1  UNL1       -0.0102
     13 C         138.3048  145.9211  155.3055 C.ar    1  UNL1        0.0004
     14 C         138.4041  144.4590  155.6256 C.ar    1  UNL1        0.0725
     15 C         139.3165  143.9912  156.7205 C.ar    1  UNL1        0.0237
     16 C         140.1295  144.9855  157.4953 C.ar    1  UNL1        0.1219
     17 C         140.0302  146.4475  157.1752 C.ar    1  UNL1        0.0164
     18 C         140.3541  148.3903  153.4448 C.3     1  UNL1        0.0499
     19 C         139.5868  149.0554  154.5488 C.2     1  UNL1        0.0681
     20 N         139.2531  150.5152  154.6353 N.2     1  UNL1       -0.1563
     21 N         138.4786  150.7396  155.9002 N.2     1  UNL1       -0.1510
     22 C         138.3337  149.4183  156.5954 C.2     1  UNL1        0.1054
     23 C         139.0186  148.3775  155.7602 C.3     1  UNL1        0.1032
     24 C         137.5910  143.4647  154.8508 C.3     1  UNL1        0.4186
     25 F         136.7780  142.4704  154.0761 F       1  UNL1       -0.1659
     26 F         138.4120  142.3474  155.4232 F       1  UNL1       -0.1659
     27 F         136.7700  144.5819  154.2785 F       1  UNL1       -0.1659
     28 C         144.4569  143.0916  164.3827 C.3     1  UNL1        0.0811
     29 C         144.8185  143.9669  165.5459 C.3     1  UNL1        0.0142
     30 C         143.6891  142.9872  165.6671 C.3     1  UNL1        0.0314
     31 C         142.5938  142.3613  166.4787 C.ar    1  UNL1       -0.0220
     32 C         142.8193  142.0490  167.9284 C.ar    1  UNL1       -0.0043
     33 C         141.7240  141.4231  168.7399 C.ar    1  UNL1        0.0035
     34 C         140.4032  141.1095  168.1018 C.ar    1  UNL1        0.0714
     35 C         140.1777  141.4217  166.6520 C.ar    1  UNL1        0.0035
     36 C         141.2731  142.0477  165.8405 C.ar    1  UNL1       -0.0043
     37 C         139.3080  140.4836  168.9133 C.3     1  UNL1        0.4186
     38 F         138.2127  139.8577  169.7248 F       1  UNL1       -0.1659
     39 F         139.4436  141.5723  169.9361 F       1  UNL1       -0.1659
     40 F         139.1723  139.3948  167.8905 F       1  UNL1       -0.1659
@<TRIPOS>BOND
     1    18    19    1
     2    19    20    2
     3    20    21    1
     4    21    22    2
     5    22    23    1
     6    23    12    1
     7    12    13   ar
     8    13    14   ar
     9    14    24    1
    10    24    25    1
    11    24    26    1
    12    24    27    1
    13    14    15   ar
    14    15    16   ar
    15    16     9    1
    16     9    10    2
    17     9    11    2
    18     9     1    1
    19     1     2    1
    20     2     3    1
    21     3     4    1
    22     4     5   am
    23     5     6    2
    24    28     5    1
    25    28    29    1
    26    29    30    1
    27    30    31    1
    28    31    32   ar
    29    32    33   ar
    30    33    34   ar
    31    34    37    1
    32    37    38    1
    33    37    39    1
    34    37    40    1
    35    34    35   ar
    36    35    36   ar
    37     4     7    1
    38     7     8    1
    39    16    17   ar
    40    23    19    1
    41    17    12   ar
    42     8     1    1
    43    30    28    1
    44    36    31   ar
@<TRIPOS>MOLECULE
*****
 40 44 0 0 0
SMALL
GASTEIGER

@<TRIPOS>ATOM
      1 N         140.3570  143.0502  162.3205 N.3     1  UNL1       -0.1520
      2 C         140.8167  142.2025  161.1716 C.3     1  UNL1        0.1173
      3 C         140.8802  142.7827  159.7898 C.3     1  UNL1        0.1126
      4 N         140.4839  144.2105  159.5568 N.am    1  UNL1       -0.2766
      5 C         140.5474  144.7906  158.1750 C.2     1  UNL1        0.2256
      6 O         140.1512  146.2184  157.9421 O.2     1  UNL1       -0.2749
      7 C         140.0242  145.0582  160.7058 C.3     1  UNL1        0.1126
      8 C         139.9607  144.4780  162.0876 C.3     1  UNL1        0.1173
      9 S         140.2935  142.4701  163.7023 S.O2    1  UNL1        0.0634
     10 O         138.8878  142.9727  163.8488 O.2     1  UNL1       -0.1528
     11 O         141.6992  141.9675  163.5559 O.2     1  UNL1       -0.1528
     12 C         141.0673  141.8376  167.5430 C.ar    1  UNL1       -0.0102
     13 C         140.1031  140.7298  167.8478 C.ar    1  UNL1        0.0004
     14 C         139.2024  140.2020  166.7707 C.ar    1  UNL1        0.0725
     15 C         139.2658  140.7821  165.3889 C.ar    1  UNL1        0.0237
     16 C         140.2300  141.8900  165.0841 C.ar    1  UNL1        0.1219
     17 C         141.1307  142.4177  166.1612 C.ar    1  UNL1        0.0164
     18 C         140.1584  143.7080  170.0581 C.3     1  UNL1        0.0499
     19 C         141.5503  143.2251  169.7762 C.2     1  UNL1        0.0681
     20 N         142.7688  143.5172  170.6007 N.2     1  UNL1       -0.1563
     21 N         143.9397  142.8380  169.9543 N.2     1  UNL1       -0.1510
     22 C         143.4448  142.1261  168.7303 C.2     1  UNL1        0.1054
     23 C         141.9681  142.3654  168.6201 C.3     1  UNL1        0.1032
     24 C         138.2381  139.0941  167.0754 C.3     1  UNL1        0.4186
     25 F         137.2739  137.9862  167.3801 F       1  UNL1       -0.1659
     26 F         138.2283  138.7043  165.6270 F       1  UNL1       -0.1659
     27 F         138.2478  139.4839  168.5238 F       1  UNL1       -0.1659
     28 C         141.0071  143.9429  157.0261 C.3     1  UNL1        0.0811
     29 C         140.6981  143.1560  155.7871 C.3     1  UNL1        0.0142
     30 C         142.1125  143.2616  156.2752 C.3     1  UNL1        0.0314
     31 C         143.5673  142.9291  156.1233 C.ar    1  UNL1       -0.0220
     32 C         144.2637  143.1878  154.8202 C.ar    1  UNL1       -0.0043
     33 C         145.7185  142.8554  154.6683 C.ar    1  UNL1        0.0035
     34 C         146.4770  142.2643  155.8196 C.ar    1  UNL1        0.0714
     35 C         145.7806  142.0057  157.1228 C.ar    1  UNL1        0.0035
     36 C         144.3257  142.3381  157.2746 C.ar    1  UNL1       -0.0043
     37 C         147.9317  141.9320  155.6678 C.3     1  UNL1        0.4186
     38 F         149.3865  141.5996  155.5159 F       1  UNL1       -0.1659
     39 F         147.6594  141.3614  154.3076 F       1  UNL1       -0.1659
     40 F         148.2041  142.5025  157.0280 F       1  UNL1       -0.1659
@<TRIPOS>BOND
     1    18    19    1
     2    19    20    2
     3    20    21    1
     4    21    22    2
     5    22    23    1
     6    23    12    1
     7    12    13   ar
     8    13    14   ar
     9    14    24    1
    10    24    25    1
    11    24    26    1
    12    24    27    1
    13    14    15   ar
    14    15    16   ar
    15    16     9    1
    16     9    10    2
    17     9    11    2
    18     9     1    1
    19     1     2    1
    20     2     3    1
    21     3     4    1
    22     4     5   am
    23     5     6    2
    24    28     5    1
    25    28    29    1
    26    29    30    1
    27    30    31    1
    28    31    32   ar
    29    32    33   ar
    30    33    34   ar
    31    34    37    1
    32    37    38    1
    33    37    39    1
    34    37    40    1
    35    34    35   ar
    36    35    36   ar
    37     4     7    1
    38     7     8    1
    39    16    17   ar
    40    23    19    1
    41    17    12   ar
    42     8     1    1
    43    30    28    1
    44    36    31   ar
@<TRIPOS>MOLECULE
*****
 40 44 0 0 0
SMALL
GASTEIGER

@<TRIPOS>ATOM
      1 N         141.7016  143.9766  159.3832 N.3     1  UNL1       -0.1520
      2 C         141.2902  144.1079  160.8197 C.3     1  UNL1        0.1173
      3 C         142.1957  143.6113  161.9076 C.3     1  UNL1        0.1126
      4 N         143.5126  142.9834  161.5590 N.am    1  UNL1       -0.2766
      5 C         144.4181  142.4869  162.6469 C.2     1  UNL1        0.2256
      6 O         145.7350  141.8590  162.2983 O.2     1  UNL1       -0.2749
      7 C         143.9240  142.8521  160.1225 C.3     1  UNL1        0.1126
      8 C         143.0185  143.3487  159.0346 C.3     1  UNL1        0.1173
      9 S         140.7961  144.4731  158.2953 S.O2    1  UNL1        0.0634
     10 O         141.6521  143.7894  157.2707 O.2     1  UNL1       -0.1528
     11 O         139.9400  145.1568  159.3199 O.2     1  UNL1       -0.1528
     12 C         139.0835  146.8883  155.6526 C.ar    1  UNL1       -0.0102
     13 C         138.0796  145.9628  155.0317 C.ar    1  UNL1        0.0004
     14 C         137.9811  144.5408  155.4987 C.ar    1  UNL1        0.0725
     15 C         138.8866  144.0442  156.5865 C.ar    1  UNL1        0.0237
     16 C         139.8906  144.9697  157.2075 C.ar    1  UNL1        0.1219
     17 C         139.9890  146.3917  156.7405 C.ar    1  UNL1        0.0164
     18 C         138.1144  149.5244  157.3143 C.3     1  UNL1        0.0499
     19 C         138.7365  149.5220  155.9494 C.2     1  UNL1        0.0681
     20 N         139.0225  150.7309  155.1087 N.2     1  UNL1       -0.1563
     21 N         139.6446  150.2664  153.8253 N.2     1  UNL1       -0.1510
     22 C         139.7432  148.7704  153.8728 C.2     1  UNL1        0.1054
     23 C         139.1820  148.3104  155.1856 C.3     1  UNL1        0.1032
     24 C         136.9771  143.6152  154.8777 C.3     1  UNL1        0.4186
     25 F         135.9732  142.6898  154.2568 F       1  UNL1       -0.1659
     26 F         136.6459  144.6609  153.8547 F       1  UNL1       -0.1659
     27 F         137.3084  142.5695  155.9008 F       1  UNL1       -0.1659
     28 C         144.0067  142.6182  164.0833 C.3     1  UNL1        0.0811
     29 C         144.2198  143.2052  165.4471 C.3     1  UNL1        0.0142
     30 C         143.0811  142.2586  165.2076 C.3     1  UNL1        0.0314
     31 C         141.8892  141.5045  165.7184 C.ar    1  UNL1       -0.0220
     32 C         140.6246  141.4656  164.9126 C.ar    1  UNL1       -0.0043
     33 C         139.4328  140.7115  165.4234 C.ar    1  UNL1        0.0035
     34 C         139.5055  139.9963  166.7399 C.ar    1  UNL1        0.0714
     35 C         140.7701  140.0353  167.5457 C.ar    1  UNL1        0.0035
     36 C         141.9620  140.7894  167.0349 C.ar    1  UNL1       -0.0043
     37 C         138.3137  139.2423  167.2507 C.3     1  UNL1        0.4186
     38 F         137.1219  138.4882  167.7614 F       1  UNL1       -0.1659
     39 F         137.9679  138.8389  165.8480 F       1  UNL1       -0.1659
     40 F         138.6596  139.6457  168.6534 F       1  UNL1       -0.1659
@<TRIPOS>BOND
     1    18    19    1
     2    19    20    2
     3    20    21    1
     4    21    22    2
     5    22    23    1
     6    23    12    1
     7    12    13   ar
     8    13    14   ar
     9    14    24    1
    10    24    25    1
    11    24    26    1
    12    24    27    1
    13    14    15   ar
    14    15    16   ar
    15    16     9    1
    16     9    10    2
    17     9    11    2
    18     9     1    1
    19     1     2    1
    20     2     3    1
    21     3     4    1
    22     4     5   am
    23     5     6    2
    24    28     5    1
    25    28    29    1
    26    29    30    1
    27    30    31    1
    28    31    32   ar
    29    32    33   ar
    30    33    34   ar
    31    34    37    1
    32    37    38    1
    33    37    39    1
    34    37    40    1
    35    34    35   ar
    36    35    36   ar
    37     4     7    1
    38     7     8    1
    39    16    17   ar
    40    23    19    1
    41    17    12   ar
    42     8     1    1
    43    30    28    1
    44    36    31   ar
@<TRIPOS>MOLECULE
*****
 40 44 0 0 0
SMALL
GASTEIGER

@<TRIPOS>ATOM
      1 N         142.0224  144.0468  159.6832 N.3     1  UNL1       -0.1520
      2 C         141.7861  144.4928  161.0957 C.3     1  UNL1        0.1173
      3 C         142.6938  144.0213  162.1929 C.3     1  UNL1        0.1126
      4 N         143.8377  143.1037  161.8776 N.am    1  UNL1       -0.2766
      5 C         144.7453  142.6321  162.9747 C.2     1  UNL1        0.2256
      6 O         145.8892  141.7145  162.6594 O.2     1  UNL1       -0.2749
      7 C         144.0739  142.6576  160.4651 C.3     1  UNL1        0.1126
      8 C         143.1662  143.1292  159.3679 C.3     1  UNL1        0.1173
      9 S         141.1147  144.5183  158.5860 S.O2    1  UNL1        0.0634
     10 O         140.3812  143.2107  158.6309 O.2     1  UNL1       -0.1528
     11 O         141.8482  145.8260  158.5412 O.2     1  UNL1       -0.1528
     12 C         138.5162  144.4671  155.5868 C.ar    1  UNL1       -0.0102
     13 C         138.3917  145.9330  155.2945 C.ar    1  UNL1        0.0004
     14 C         139.1749  146.9274  156.0993 C.ar    1  UNL1        0.0725
     15 C         140.0825  146.4558  157.1965 C.ar    1  UNL1        0.0237
     16 C         140.2070  144.9899  157.4889 C.ar    1  UNL1        0.1219
     17 C         139.4239  143.9955  156.6840 C.ar    1  UNL1        0.0164
     18 C         139.1889  143.5093  152.5405 C.3     1  UNL1        0.0499
     19 C         138.0423  143.0324  153.3817 C.2     1  UNL1        0.0681
     20 N         137.0035  142.0315  152.9705 N.2     1  UNL1       -0.1563
     21 N         136.0522  141.8531  154.1165 N.2     1  UNL1       -0.1510
     22 C         136.5032  142.7437  155.2361 C.2     1  UNL1        0.1054
     23 C         137.7331  143.4726  154.7820 C.3     1  UNL1        0.1032
     24 C         139.0504  148.3934  155.8070 C.3     1  UNL1        0.4186
     25 F         138.9260  149.8593  155.5147 F       1  UNL1       -0.1659
     26 F         139.5765  148.1618  154.4216 F       1  UNL1       -0.1659
     27 F         138.5243  148.6250  157.1925 F       1  UNL1       -0.1659
     28 C         144.5091  143.0782  164.3872 C.3     1  UNL1        0.0811
     29 C         144.8721  143.9511  165.5518 C.3     1  UNL1        0.0142
     30 C         143.7368  142.9778  165.6692 C.3     1  UNL1        0.0314
     31 C         142.6354  142.3580  166.4773 C.ar    1  UNL1       -0.0220
     32 C         142.9667  141.4763  167.6447 C.ar    1  UNL1       -0.0043
     33 C         141.8654  140.8565  168.4527 C.ar    1  UNL1        0.0035
     34 C         140.4328  141.1183  168.0933 C.ar    1  UNL1        0.0714
     35 C         140.1015  141.9999  166.9258 C.ar    1  UNL1        0.0035
     36 C         141.2029  142.6198  166.1178 C.ar    1  UNL1       -0.0043
     37 C         139.3315  140.4984  168.9013 C.3     1  UNL1        0.4186
     38 F         138.2302  139.8786  169.7093 F       1  UNL1       -0.1659
     39 F         139.4192  141.6263  169.8862 F       1  UNL1       -0.1659
     40 F         139.2438  139.3705  167.9164 F       1  UNL1       -0.1659
@<TRIPOS>BOND
     1    18    19    1
     2    19    20    2
     3    20    21    1
     4    21    22    2
     5    22    23    1
     6    23    12    1
     7    12    13   ar
     8    13    14   ar
     9    14    24    1
    10    24    25    1
    11    24    26    1
    12    24    27    1
    13    14    15   ar
    14    15    16   ar
    15    16     9    1
    16     9    10    2
    17     9    11    2
    18     9     1    1
    19     1     2    1
    20     2     3    1
    21     3     4    1
    22     4     5   am
    23     5     6    2
    24    28     5    1
    25    28    29    1
    26    29    30    1
    27    30    31    1
    28    31    32   ar
    29    32    33   ar
    30    33    34   ar
    31    34    37    1
    32    37    38    1
    33    37    39    1
    34    37    40    1
    35    34    35   ar
    36    35    36   ar
    37     4     7    1
    38     7     8    1
    39    16    17   ar
    40    23    19    1
    41    17    12   ar
    42     8     1    1
    43    30    28    1
    44    36    31   ar
@<TRIPOS>MOLECULE
*****
 40 44 0 0 0
SMALL
GASTEIGER

@<TRIPOS>ATOM
      1 N         141.5089  141.9416  162.7106 N.3     1  UNL1       -0.1520
      2 C         142.5775  141.1705  161.9941 C.3     1  UNL1        0.1173
      3 C         143.1297  141.6823  160.6968 C.3     1  UNL1        0.1126
      4 N         142.6134  142.9652  160.1160 N.am    1  UNL1       -0.2766
      5 C         143.1656  143.4771  158.8186 C.2     1  UNL1        0.2256
      6 O         142.6493  144.7600  158.2378 O.2     1  UNL1       -0.2749
      7 C         141.5448  143.7364  160.8325 C.3     1  UNL1        0.1126
      8 C         140.9925  143.2245  162.1298 C.3     1  UNL1        0.1173
      9 S         140.9566  141.4298  164.0080 S.O2    1  UNL1        0.0634
     10 O         141.2070  142.7661  164.6417 O.2     1  UNL1       -0.1528
     11 O         140.7063  140.0935  163.3742 O.2     1  UNL1       -0.1528
     12 C         140.2046  141.0907  167.8899 C.ar    1  UNL1       -0.0102
     13 C         139.2999  139.8943  167.8999 C.ar    1  UNL1        0.0004
     14 C         138.9474  139.2098  166.6127 C.ar    1  UNL1        0.0725
     15 C         139.4997  139.7216  165.3153 C.ar    1  UNL1        0.0237
     16 C         140.4044  140.9179  165.3053 C.ar    1  UNL1        0.1219
     17 C         140.7569  141.6025  166.5926 C.ar    1  UNL1        0.0164
     18 C         143.1499  142.2301  168.7127 C.3     1  UNL1        0.0499
     19 C         141.9109  142.2990  169.5554 C.2     1  UNL1        0.0681
     20 N         141.8082  142.9037  170.9242 N.2     1  UNL1       -0.1563
     21 N         140.3909  142.7538  171.3921 N.2     1  UNL1       -0.1510
     22 C         139.6177  142.0564  170.3123 C.2     1  UNL1        0.1054
     23 C         140.5571  141.7753  169.1772 C.3     1  UNL1        0.1032
     24 C         138.0427  138.0133  166.6227 C.3     1  UNL1        0.4186
     25 F         137.1379  136.8170  166.6327 F       1  UNL1       -0.1659
     26 F         137.2582  138.6160  167.7502 F       1  UNL1       -0.1659
     27 F         138.8271  137.4106  165.4952 F       1  UNL1       -0.1659
     28 C         144.2342  142.7059  158.1021 C.3     1  UNL1        0.0811
     29 C         145.6473  142.5927  157.6121 C.3     1  UNL1        0.0142
     30 C         144.6719  141.4835  157.3510 C.3     1  UNL1        0.0314
     31 C         144.3614  140.1374  156.7666 C.ar    1  UNL1       -0.0220
     32 C         145.1210  139.6459  155.5702 C.ar    1  UNL1       -0.0043
     33 C         144.8105  138.2998  154.9857 C.ar    1  UNL1        0.0035
     34 C         143.7404  137.4451  155.5977 C.ar    1  UNL1        0.0714
     35 C         142.9809  137.9366  156.7942 C.ar    1  UNL1        0.0035
     36 C         143.2913  139.2827  157.3786 C.ar    1  UNL1       -0.0043
     37 C         143.4300  136.0990  155.0133 C.3     1  UNL1        0.4186
     38 F         143.1196  134.7529  154.4289 F       1  UNL1       -0.1659
     39 F         144.1288  135.4381  156.1643 F       1  UNL1       -0.1659
     40 F         142.7312  136.7599  153.8623 F       1  UNL1       -0.1659
@<TRIPOS>BOND
     1    18    19    1
     2    19    20    2
     3    20    21    1
     4    21    22    2
     5    22    23    1
     6    23    12    1
     7    12    13   ar
     8    13    14   ar
     9    14    24    1
    10    24    25    1
    11    24    26    1
    12    24    27    1
    13    14    15   ar
    14    15    16   ar
    15    16     9    1
    16     9    10    2
    17     9    11    2
    18     9     1    1
    19     1     2    1
    20     2     3    1
    21     3     4    1
    22     4     5   am
    23     5     6    2
    24    28     5    1
    25    28    29    1
    26    29    30    1
    27    30    31    1
    28    31    32   ar
    29    32    33   ar
    30    33    34   ar
    31    34    37    1
    32    37    38    1
    33    37    39    1
    34    37    40    1
    35    34    35   ar
    36    35    36   ar
    37     4     7    1
    38     7     8    1
    39    16    17   ar
    40    23    19    1
    41    17    12   ar
    42     8     1    1
    43    30    28    1
    44    36    31   ar
@<TRIPOS>MOLECULE
*****
 40 44 0 0 0
SMALL
GASTEIGER

@<TRIPOS>ATOM
      1 N         140.4695  142.5096  162.6130 N.3     1  UNL1       -0.1520
      2 C         140.1498  141.8107  161.3248 C.3     1  UNL1        0.1173
      3 C         140.4570  142.4744  160.0152 C.3     1  UNL1        0.1126
      4 N         141.0838  143.8369  159.9937 N.am    1  UNL1       -0.2766
      5 C         141.3910  144.5006  158.6840 C.2     1  UNL1        0.2256
      6 O         142.0179  145.8631  158.6625 O.2     1  UNL1       -0.2749
      7 C         141.4035  144.5358  161.2818 C.3     1  UNL1        0.1126
      8 C         141.0963  143.8721  162.5915 C.3     1  UNL1        0.1173
      9 S         140.1623  141.8459  163.9226 S.O2    1  UNL1        0.0634
     10 O         138.8629  141.3458  163.3644 O.2     1  UNL1       -0.1528
     11 O         141.4616  142.3460  164.4808 O.2     1  UNL1       -0.1528
     12 C         139.9886  141.1549  167.8267 C.ar    1  UNL1       -0.0102
     13 C         139.2407  139.8549  167.8515 C.ar    1  UNL1        0.0004
     14 C         138.8000  139.2186  166.5667 C.ar    1  UNL1        0.0725
     15 C         139.1072  139.8823  165.2571 C.ar    1  UNL1        0.0237
     16 C         139.8551  141.1822  165.2323 C.ar    1  UNL1        0.1219
     17 C         140.2958  141.8185  166.5171 C.ar    1  UNL1        0.0164
     18 C         142.9977  142.2193  168.5068 C.3     1  UNL1        0.0499
     19 C         141.8125  142.2805  169.4242 C.2     1  UNL1        0.0681
     20 N         141.8023  142.8417  170.8152 N.2     1  UNL1       -0.1563
     21 N         140.4129  142.6993  171.3624 N.2     1  UNL1       -0.1510
     22 C         139.5644  142.0500  170.3095 C.2     1  UNL1        0.1054
     23 C         140.4294  141.7912  169.1116 C.3     1  UNL1        0.1032
     24 C         138.0521  137.9186  166.5915 C.3     1  UNL1        0.4186
     25 F         137.3041  136.6186  166.6163 F       1  UNL1       -0.1659
     26 F         137.1788  138.4420  167.6930 F       1  UNL1       -0.1659
     27 F         138.9253  137.3951  165.4900 F       1  UNL1       -0.1659
     28 C         141.0713  143.8018  157.3959 C.3     1  UNL1        0.0811
     29 C         141.5042  143.2867  156.0553 C.3     1  UNL1        0.0142
     30 C         140.0847  143.1063  156.5054 C.3     1  UNL1        0.0314
     31 C         138.6955  142.6007  156.2511 C.ar    1  UNL1       -0.0220
     32 C         137.9254  143.0903  155.0606 C.ar    1  UNL1       -0.0043
     33 C         136.5363  142.5847  154.8063 C.ar    1  UNL1        0.0035
     34 C         135.9173  141.5895  155.7424 C.ar    1  UNL1        0.0714
     35 C         136.6874  141.0999  156.9329 C.ar    1  UNL1        0.0035
     36 C         138.0765  141.6055  157.1872 C.ar    1  UNL1       -0.0043
     37 C         134.5282  141.0839  155.4881 C.3     1  UNL1        0.4186
     38 F         133.1391  140.5783  155.2338 F       1  UNL1       -0.1659
     39 F         134.5426  140.3784  156.8117 F       1  UNL1       -0.1659
     40 F         134.5137  141.7895  154.1645 F       1  UNL1       -0.1659
@<TRIPOS>BOND
     1    18    19    1
     2    19    20    2
     3    20    21    1
     4    21    22    2
     5    22    23    1
     6    23    12    1
     7    12    13   ar
     8    13    14   ar
     9    14    24    1
    10    24    25    1
    11    24    26    1
    12    24    27    1
    13    14    15   ar
    14    15    16   ar
    15    16     9    1
    16     9    10    2
    17     9    11    2
    18     9     1    1
    19     1     2    1
    20     2     3    1
    21     3     4    1
    22     4     5   am
    23     5     6    2
    24    28     5    1
    25    28    29    1
    26    29    30    1
    27    30    31    1
    28    31    32   ar
    29    32    33   ar
    30    33    34   ar
    31    34    37    1
    32    37    38    1
    33    37    39    1
    34    37    40    1
    35    34    35   ar
    36    35    36   ar
    37     4     7    1
    38     7     8    1
    39    16    17   ar
    40    23    19    1
    41    17    12   ar
    42     8     1    1
    43    30    28    1
    44    36    31   ar
@<TRIPOS>MOLECULE
*****
 40 44 0 0 0
SMALL
GASTEIGER

@<TRIPOS>ATOM
      1 N         141.4074  139.1893  159.7428 N.3     1  UNL1       -0.1520
      2 C         142.3142  138.2779  158.9701 C.3     1  UNL1        0.1173
      3 C         141.8118  137.5906  157.7351 C.3     1  UNL1        0.1126
      4 N         140.4025  137.8147  157.2728 N.am    1  UNL1       -0.2766
      5 C         139.9001  137.1274  156.0379 C.2     1  UNL1        0.2256
      6 O         138.4908  137.3515  155.5756 O.2     1  UNL1       -0.2749
      7 C         139.4957  138.7261  158.0455 C.3     1  UNL1        0.1126
      8 C         139.9982  139.4133  159.2805 C.3     1  UNL1        0.1173
      9 S         141.9099  139.8765  160.9778 S.O2    1  UNL1        0.0634
     10 O         141.3624  141.1796  160.4754 O.2     1  UNL1       -0.1528
     11 O         142.4574  138.5735  161.4802 O.2     1  UNL1       -0.1528
     12 C         143.0311  140.4899  164.7350 C.ar    1  UNL1       -0.0102
     13 C         143.4172  141.9384  164.6828 C.ar    1  UNL1        0.0004
     14 C         143.3009  142.6996  163.3956 C.ar    1  UNL1        0.0725
     15 C         142.7985  142.0123  162.1606 C.ar    1  UNL1        0.0237
     16 C         142.4123  140.5638  162.2128 C.ar    1  UNL1        0.1219
     17 C         142.5287  139.8026  163.5000 C.ar    1  UNL1        0.0164
     18 C         141.8550  141.4275  167.6311 C.3     1  UNL1        0.0499
     19 C         142.6069  140.1596  167.3534 C.2     1  UNL1        0.0681
     20 N         142.9501  139.1000  168.3582 N.2     1  UNL1       -0.1563
     21 N         143.7029  138.0142  167.6480 N.2     1  UNL1       -0.1510
     22 C         143.8248  138.4027  166.2043 C.2     1  UNL1        0.1054
     23 C         143.1475  139.7286  166.0223 C.3     1  UNL1        0.1032
     24 C         143.6870  144.1481  163.3433 C.3     1  UNL1        0.4186
     25 F         144.0732  145.5966  163.2910 F       1  UNL1       -0.1659
     26 F         144.7729  143.8232  162.3609 F       1  UNL1       -0.1659
     27 F         142.6011  144.4731  164.3257 F       1  UNL1       -0.1659
     28 C         140.8069  136.2161  155.2652 C.3     1  UNL1        0.0811
     29 C         141.4312  135.8007  153.9661 C.3     1  UNL1        0.0142
     30 C         141.7532  135.0530  155.2259 C.3     1  UNL1        0.0314
     31 C         142.4856  133.9497  155.9306 C.ar    1  UNL1       -0.0220
     32 C         143.6786  134.2664  156.7829 C.ar    1  UNL1       -0.0043
     33 C         144.4110  133.1632  157.4876 C.ar    1  UNL1        0.0035
     34 C         143.9503  131.7433  157.3400 C.ar    1  UNL1        0.0714
     35 C         142.7573  131.4266  156.4877 C.ar    1  UNL1        0.0035
     36 C         142.0249  132.5299  155.7830 C.ar    1  UNL1       -0.0043
     37 C         144.6827  130.6401  158.0447 C.3     1  UNL1        0.4186
     38 F         145.4150  129.5369  158.7494 F       1  UNL1       -0.1659
     39 F         145.7638  131.6051  158.4317 F       1  UNL1       -0.1659
     40 F         143.6015  129.6751  157.6577 F       1  UNL1       -0.1659
@<TRIPOS>BOND
     1    18    19    1
     2    19    20    2
     3    20    21    1
     4    21    22    2
     5    22    23    1
     6    23    12    1
     7    12    13   ar
     8    13    14   ar
     9    14    24    1
    10    24    25    1
    11    24    26    1
    12    24    27    1
    13    14    15   ar
    14    15    16   ar
    15    16     9    1
    16     9    10    2
    17     9    11    2
    18     9     1    1
    19     1     2    1
    20     2     3    1
    21     3     4    1
    22     4     5   am
    23     5     6    2
    24    28     5    1
    25    28    29    1
    26    29    30    1
    27    30    31    1
    28    31    32   ar
    29    32    33   ar
    30    33    34   ar
    31    34    37    1
    32    37    38    1
    33    37    39    1
    34    37    40    1
    35    34    35   ar
    36    35    36   ar
    37     4     7    1
    38     7     8    1
    39    16    17   ar
    40    23    19    1
    41    17    12   ar
    42     8     1    1
    43    30    28    1
    44    36    31   ar
@<TRIPOS>MOLECULE
*****
 40 44 0 0 0
SMALL
GASTEIGER

@<TRIPOS>ATOM
      1 N         140.1935  141.8133  162.3217 N.3     1  UNL1       -0.1520
      2 C         141.2047  142.3392  161.3466 C.3     1  UNL1        0.1173
      3 C         140.7816  142.7171  159.9580 C.3     1  UNL1        0.1126
      4 N         139.3474  142.5690  159.5445 N.am    1  UNL1       -0.2766
      5 C         138.9243  142.9469  158.1559 C.2     1  UNL1        0.2256
      6 O         137.4901  142.7988  157.7424 O.2     1  UNL1       -0.2749
      7 C         138.3362  142.0430  160.5196 C.3     1  UNL1        0.1126
      8 C         138.7593  141.6652  161.9082 C.3     1  UNL1        0.1173
      9 S         140.6166  141.4354  163.7103 S.O2    1  UNL1        0.0634
     10 O         139.5924  142.3731  164.2775 O.2     1  UNL1       -0.1528
     11 O         141.6407  140.4976  163.1431 O.2     1  UNL1       -0.1528
     12 C         140.9237  141.4333  167.6670 C.ar    1  UNL1       -0.0102
     13 C         141.8858  140.3017  167.8761 C.ar    1  UNL1        0.0004
     14 C         142.4248  139.5480  166.6966 C.ar    1  UNL1        0.0725
     15 C         142.0017  139.9259  165.3080 C.ar    1  UNL1        0.0237
     16 C         141.0397  141.0575  165.0989 C.ar    1  UNL1        0.1219
     17 C         140.5006  141.8112  166.2784 C.ar    1  UNL1        0.0164
     18 C         138.9930  140.2183  170.0006 C.3     1  UNL1        0.0499
     19 C         139.4972  141.6287  169.9191 C.2     1  UNL1        0.0681
     20 N         139.2025  142.7281  170.8960 N.2     1  UNL1       -0.1563
     21 N         139.9078  143.9662  170.4271 N.2     1  UNL1       -0.1510
     22 C         140.6384  143.6318  169.1605 C.2     1  UNL1        0.1054
     23 C         140.3846  142.1872  168.8465 C.3     1  UNL1        0.1032
     24 C         143.3870  138.4163  166.9056 C.3     1  UNL1        0.4186
     25 F         144.3491  137.2847  167.1147 F       1  UNL1       -0.1659
     26 F         143.0575  138.4065  168.3689 F       1  UNL1       -0.1659
     27 F         143.7165  138.4261  165.4423 F       1  UNL1       -0.1659
     28 C         139.9354  143.4729  157.1808 C.3     1  UNL1        0.0811
     29 C         141.2301  143.3151  156.4399 C.3     1  UNL1        0.0142
     30 C         140.3921  144.5417  156.2326 C.3     1  UNL1        0.0314
     31 C         140.1720  145.8671  155.5655 C.ar    1  UNL1       -0.0220
     32 C         139.2049  146.8514  156.1537 C.ar    1  UNL1       -0.0043
     33 C         138.9847  148.1767  155.4866 C.ar    1  UNL1        0.0035
     34 C         139.7316  148.5178  154.2312 C.ar    1  UNL1        0.0714
     35 C         140.6987  147.5335  153.6430 C.ar    1  UNL1        0.0035
     36 C         140.9188  146.2081  154.3102 C.ar    1  UNL1       -0.0043
     37 C         139.5114  149.8431  153.5642 C.3     1  UNL1        0.4186
     38 F         139.2913  151.1684  152.8971 F       1  UNL1       -0.1659
     39 F         139.5692  149.1769  152.2215 F       1  UNL1       -0.1659
     40 F         139.4537  150.5093  154.9068 F       1  UNL1       -0.1659
@<TRIPOS>BOND
     1    18    19    1
     2    19    20    2
     3    20    21    1
     4    21    22    2
     5    22    23    1
     6    23    12    1
     7    12    13   ar
     8    13    14   ar
     9    14    24    1
    10    24    25    1
    11    24    26    1
    12    24    27    1
    13    14    15   ar
    14    15    16   ar
    15    16     9    1
    16     9    10    2
    17     9    11    2
    18     9     1    1
    19     1     2    1
    20     2     3    1
    21     3     4    1
    22     4     5   am
    23     5     6    2
    24    28     5    1
    25    28    29    1
    26    29    30    1
    27    30    31    1
    28    31    32   ar
    29    32    33   ar
    30    33    34   ar
    31    34    37    1
    32    37    38    1
    33    37    39    1
    34    37    40    1
    35    34    35   ar
    36    35    36   ar
    37     4     7    1
    38     7     8    1
    39    16    17   ar
    40    23    19    1
    41    17    12   ar
    42     8     1    1
    43    30    28    1
    44    36    31   ar
@<TRIPOS>MOLECULE
*****
 40 44 0 0 0
SMALL
GASTEIGER

@<TRIPOS>ATOM
      1 N         138.9906  141.1884  160.0205 N.3     1  UNL1       -0.1520
      2 C         138.0557  140.3018  159.2525 C.3     1  UNL1        0.1173
      3 C         137.4364  140.7909  157.9769 C.3     1  UNL1        0.1126
      4 N         137.7518  142.1667  157.4694 N.am    1  UNL1       -0.2766
      5 C         137.1324  142.6559  156.1938 C.2     1  UNL1        0.2256
      6 O         137.4478  144.0317  155.6863 O.2     1  UNL1       -0.2749
      7 C         138.6866  143.0534  158.2374 C.3     1  UNL1        0.1126
      8 C         139.3060  142.5642  159.5130 C.3     1  UNL1        0.1173
      9 S         139.6100  140.6992  161.2961 S.O2    1  UNL1        0.0634
     10 O         140.9461  140.6244  160.6186 O.2     1  UNL1       -0.1528
     11 O         138.2738  140.7741  161.9736 O.2     1  UNL1       -0.1528
     12 C         139.9867  139.4539  165.0454 C.ar    1  UNL1       -0.0102
     13 C         141.4681  139.2317  165.1228 C.ar    1  UNL1        0.0004
     14 C         142.3301  139.4987  163.9247 C.ar    1  UNL1        0.0725
     15 C         141.7108  139.9879  162.6491 C.ar    1  UNL1        0.0237
     16 C         140.2294  140.2101  162.5717 C.ar    1  UNL1        0.1219
     17 C         139.3673  139.9431  163.7698 C.ar    1  UNL1        0.0164
     18 C         140.2445  140.9067  167.9562 C.3     1  UNL1        0.0499
     19 C         139.2431  139.8547  167.5815 C.2     1  UNL1        0.0681
     20 N         138.1844  139.2857  168.4789 N.2     1  UNL1       -0.1563
     21 N         137.4116  138.2662  167.6956 N.2     1  UNL1       -0.1510
     22 C         137.9927  138.2052  166.3141 C.2     1  UNL1        0.1054
     23 C         139.1246  139.1869  166.2436 C.3     1  UNL1        0.1032
     24 C         143.8116  139.2766  164.0020 C.3     1  UNL1        0.4186
     25 F         145.2930  139.0544  164.0795 F       1  UNL1       -0.1659
     26 F         143.6602  138.7542  165.3999 F       1  UNL1       -0.1659
     27 F         143.9630  139.7989  162.6041 F       1  UNL1       -0.1659
     28 C         136.1976  141.7693  155.4258 C.3     1  UNL1        0.0811
     29 C         135.8770  140.9779  154.1925 C.3     1  UNL1        0.0142
     30 C         134.8989  141.0249  155.3288 C.3     1  UNL1        0.0314
     31 C         133.5844  140.6222  155.9288 C.ar    1  UNL1       -0.0220
     32 C         132.3137  141.2555  155.4448 C.ar    1  UNL1       -0.0043
     33 C         130.9992  140.8529  156.0447 C.ar    1  UNL1        0.0035
     34 C         130.9554  139.8170  157.1288 C.ar    1  UNL1        0.0714
     35 C         132.2261  139.1837  157.6128 C.ar    1  UNL1        0.0035
     36 C         133.5406  139.5864  157.0128 C.ar    1  UNL1       -0.0043
     37 C         129.6409  139.4143  157.7288 C.3     1  UNL1        0.4186
     38 F         128.3264  139.0117  158.3287 F       1  UNL1       -0.1659
     39 F         128.9225  140.2748  156.7321 F       1  UNL1       -0.1659
     40 F         130.3594  138.5539  158.7255 F       1  UNL1       -0.1659
@<TRIPOS>BOND
     1    18    19    1
     2    19    20    2
     3    20    21    1
     4    21    22    2
     5    22    23    1
     6    23    12    1
     7    12    13   ar
     8    13    14   ar
     9    14    24    1
    10    24    25    1
    11    24    26    1
    12    24    27    1
    13    14    15   ar
    14    15    16   ar
    15    16     9    1
    16     9    10    2
    17     9    11    2
    18     9     1    1
    19     1     2    1
    20     2     3    1
    21     3     4    1
    22     4     5   am
    23     5     6    2
    24    28     5    1
    25    28    29    1
    26    29    30    1
    27    30    31    1
    28    31    32   ar
    29    32    33   ar
    30    33    34   ar
    31    34    37    1
    32    37    38    1
    33    37    39    1
    34    37    40    1
    35    34    35   ar
    36    35    36   ar
    37     4     7    1
    38     7     8    1
    39    16    17   ar
    40    23    19    1
    41    17    12   ar
    42     8     1    1
    43    30    28    1
    44    36    31   ar
