@<TRIPOS>MOLECULE
*****
 45 51 0 0 0
SMALL
GASTEIGER

@<TRIPOS>ATOM
      1 C         137.9712  142.7489  163.8260 C.3     1  UNL1        0.0932
      2 C         138.1185  141.5221  164.6765 C.3     1  UNL1        0.0286
      3 C         138.0619  140.1618  164.0469 C.3     1  UNL1        0.0193
      4 C         137.8580  140.0283  162.5668 C.3     1  UNL1        0.0700
      5 C         137.7107  141.2551  161.7163 C.3     1  UNL1        0.0193
      6 C         137.7673  142.6154  162.3459 C.3     1  UNL1        0.0286
      7 C         137.8822  140.7948  162.8665 C.3     1  UNL1        0.1562
      8 O         137.9333  142.0248  163.4358 O.3     1  UNL1       -0.3572
      9 N         137.8014  138.6680  161.9372 N.3     1  UNL1       -0.2926
     10 H         137.0993  138.7143  161.1987 H       1  UNL1        0.1236
     11 C         139.0348  138.0729  161.3252 C.3     1  UNL1        0.1152
     12 C         140.3849  138.3967  161.8932 C.ar    1  UNL1        0.0765
     13 C         141.4169  139.0694  161.0374 C.ar    1  UNL1        0.0193
     14 C         142.7669  139.3931  161.6053 C.ar    1  UNL1        0.0411
     15 C         143.0849  139.0442  163.0291 C.ar    1  UNL1        0.1708
     16 C         142.0529  138.3716  163.8849 C.ar    1  UNL1        0.1682
     17 N         140.7029  138.0478  163.3170 N.ar    1  UNL1       -0.2304
     18 N         142.3710  138.0227  165.3087 N.am    1  UNL1       -0.2639
     19 C         143.7210  138.3464  165.8767 C.2     1  UNL1        0.2718
     20 O         144.0390  137.9975  167.3004 O.2     1  UNL1       -0.2707
     21 C         144.7530  139.0191  165.0208 C.3     1  UNL1        0.2898
     22 O         144.4350  139.3680  163.5971 O.3     1  UNL1       -0.4628
     23 H         141.6936  137.5812  165.8704 H       1  UNL1        0.1565
     24 C         138.0278  144.1092  164.4556 C.3     1  UNL1        0.0320
     25 C         139.3308  144.8488  164.5274 C.3     1  UNL1        0.0327
     26 C         143.3258  142.8189  164.9386 C.ar    1  UNL1        0.2249
     27 C         144.2728  142.7844  163.7759 C.ar    1  UNL1        0.0593
     28 C         143.8881  143.4266  162.4761 C.ar    1  UNL1        0.0254
     29 C         142.5564  144.1033  162.3390 C.ar    1  UNL1        0.0990
     30 N         142.1718  144.7455  161.0391 N.ar    1  UNL1       -0.2400
     31 C         140.8401  145.4221  160.9020 C.ar    1  UNL1        0.1281
     32 C         139.8931  145.4565  162.0649 C.ar    1  UNL1        0.1566
     33 F         138.5614  146.1332  161.9278 F       1  UNL1       -0.2028
     34 C         140.2778  144.8143  163.3647 C.ar    1  UNL1        0.0261
     35 C         141.6095  144.1377  163.5017 C.ar    1  UNL1        0.1002
     36 N         141.9942  143.4955  164.8015 N.ar    1  UNL1       -0.2104
     37 O         143.7105  142.1766  166.2385 O.3     1  UNL1       -0.4602
     38 C         142.6479  141.6720  167.1691 C.3     1  UNL1        0.2075
     39 C         141.7028  142.8351  169.6494 C.3     1  UNL1        0.1028
     40 C         143.1712  142.6127  169.8596 C.3     1  UNL1        0.0155
     41 C         142.5349  142.2357  168.5546 C.3     1  UNL1        0.0549
     42 C         140.3746  143.3095  170.1600 C.2     1  UNL1        0.3167
     43 O         140.1002  144.7790  170.2839 O.2     1  UNL1       -0.2501
     44 C         139.3884  140.9097  170.0254 C.3     1  UNL1        0.2556
     45 O         139.3209  142.3146  170.5468 O.3     1  UNL1       -0.4444
@<TRIPOS>BOND
     1    44    45    1
     2    45    42    1
     3    42    43    2
     4    39    42    1
     5    39    40    1
     6    40    41    1
     7    41    38    1
     8    38    37    1
     9    37    26    1
    10    26    27   ar
    11    27    28   ar
    12    28    29   ar
    13    29    30   ar
    14    30    31   ar
    15    31    32   ar
    16    32    33    1
    17    32    34   ar
    18    34    25    1
    19    25    24    1
    20    24     1    1
    21     1     2    1
    22     2     3    1
    23     3     4    1
    24     4     9    1
    25     9    11    1
    26    11    12    1
    27    12    13   ar
    28    13    14   ar
    29    14    15   ar
    30    15    16   ar
    31    16    17   ar
    32    16    18    1
    33    18    19   am
    34    19    20    2
    35    19    21    1
    36    21    22    1
    37     4     5    1
    38     5     6    1
    39     4     7    1
    40     7     8    1
    41    34    35   ar
    42    35    36   ar
    43    41    39    1
    44    36    26   ar
    45    35    29   ar
    46     6     1    1
    47     8     1    1
    48    17    12   ar
    49    22    15    1
    50     9    10    1
    51    18    23    1
@<TRIPOS>MOLECULE
*****
 45 51 0 0 0
SMALL
GASTEIGER

@<TRIPOS>ATOM
      1 C         141.7432  138.1959  163.7668 C.3     1  UNL1        0.0932
      2 C         142.6591  138.6163  164.8777 C.3     1  UNL1        0.0286
      3 C         143.8934  139.4119  164.5717 C.3     1  UNL1        0.0193
      4 C         144.2117  139.7870  163.1547 C.3     1  UNL1        0.0700
      5 C         143.2957  139.3666  162.0437 C.3     1  UNL1        0.0193
      6 C         142.0615  138.5710  162.3497 C.3     1  UNL1        0.0286
      7 C         143.5238  139.3502  163.2733 C.3     1  UNL1        0.1562
      8 O         142.4078  138.6309  163.5500 O.3     1  UNL1       -0.3572
      9 N         145.4460  140.5825  162.8487 N.3     1  UNL1       -0.2926
     10 H         145.5575  140.5747  161.8348 H       1  UNL1        0.1236
     11 C         145.5421  142.0148  163.2838 C.3     1  UNL1        0.1152
     12 C         144.3558  142.9222  163.1445 C.ar    1  UNL1        0.0765
     13 C         143.7597  143.5692  164.3594 C.ar    1  UNL1        0.0193
     14 C         142.5735  144.4766  164.2201 C.ar    1  UNL1        0.0411
     15 C         141.9834  144.7370  162.8658 C.ar    1  UNL1        0.1708
     16 C         142.5795  144.0901  161.6509 C.ar    1  UNL1        0.1682
     17 N         143.7657  143.1827  161.7903 N.ar    1  UNL1       -0.2304
     18 N         141.9894  144.3506  160.2967 N.am    1  UNL1       -0.2639
     19 C         140.8032  145.2580  160.1574 C.2     1  UNL1        0.2718
     20 O         140.2131  145.5184  158.8031 O.2     1  UNL1       -0.2707
     21 C         140.2070  145.9050  161.3723 C.3     1  UNL1        0.2898
     22 O         140.7971  145.6445  162.7265 O.3     1  UNL1       -0.4628
     23 H         142.3807  143.9260  159.4993 H       1  UNL1        0.1565
     24 C         140.5088  137.4003  164.0728 C.3     1  UNL1        0.0320
     25 C         139.2484  138.1007  164.4860 C.3     1  UNL1        0.0327
     26 C         139.6761  142.3483  165.9089 C.ar    1  UNL1        0.2249
     27 C         139.1375  143.4753  165.0784 C.ar    1  UNL1        0.0593
     28 C         138.4564  143.1864  163.7736 C.ar    1  UNL1        0.0254
     29 C         138.3138  141.7706  163.2993 C.ar    1  UNL1        0.0990
     30 N         137.6327  141.4817  161.9944 N.ar    1  UNL1       -0.2400
     31 C         137.4901  140.0658  161.5201 C.ar    1  UNL1        0.1281
     32 C         138.0287  138.9388  162.3507 C.ar    1  UNL1        0.1566
     33 F         137.8862  137.5229  161.8764 F       1  UNL1       -0.2028
     34 C         138.7098  139.2277  163.6555 C.ar    1  UNL1        0.0261
     35 C         138.8524  140.6436  164.1298 C.ar    1  UNL1        0.1002
     36 N         139.5335  140.9325  165.4346 N.ar    1  UNL1       -0.2104
     37 O         140.3572  142.6372  167.2138 O.3     1  UNL1       -0.4602
     38 C         141.8518  142.5581  167.3133 C.3     1  UNL1        0.2075
     39 C         142.5574  140.7602  169.4737 C.3     1  UNL1        0.1028
     40 C         143.5305  141.8966  169.5808 C.3     1  UNL1        0.0155
     41 C         142.4907  141.8991  168.4998 C.3     1  UNL1        0.0549
     42 C         142.0341  139.4465  169.9740 C.2     1  UNL1        0.3167
     43 O         142.9593  138.2740  170.1117 O.2     1  UNL1       -0.2501
     44 C         139.6408  140.4483  170.1104 C.3     1  UNL1        0.2556
     45 O         140.5854  139.3054  170.3368 O.3     1  UNL1       -0.4444
@<TRIPOS>BOND
     1    44    45    1
     2    45    42    1
     3    42    43    2
     4    39    42    1
     5    39    40    1
     6    40    41    1
     7    41    38    1
     8    38    37    1
     9    37    26    1
    10    26    27   ar
    11    27    28   ar
    12    28    29   ar
    13    29    30   ar
    14    30    31   ar
    15    31    32   ar
    16    32    33    1
    17    32    34   ar
    18    34    25    1
    19    25    24    1
    20    24     1    1
    21     1     2    1
    22     2     3    1
    23     3     4    1
    24     4     9    1
    25     9    11    1
    26    11    12    1
    27    12    13   ar
    28    13    14   ar
    29    14    15   ar
    30    15    16   ar
    31    16    17   ar
    32    16    18    1
    33    18    19   am
    34    19    20    2
    35    19    21    1
    36    21    22    1
    37     4     5    1
    38     5     6    1
    39     4     7    1
    40     7     8    1
    41    34    35   ar
    42    35    36   ar
    43    41    39    1
    44    36    26   ar
    45    35    29   ar
    46     6     1    1
    47     8     1    1
    48    17    12   ar
    49    22    15    1
    50     9    10    1
    51    18    23    1
@<TRIPOS>MOLECULE
*****
 45 51 0 0 0
SMALL
GASTEIGER

@<TRIPOS>ATOM
      1 C         138.1587  139.6925  162.7714 C.3     1  UNL1        0.0932
      2 C         138.1220  140.4044  161.4517 C.3     1  UNL1        0.0286
      3 C         137.9325  141.8918  161.4068 C.3     1  UNL1        0.0193
      4 C         137.7797  142.6672  162.6817 C.3     1  UNL1        0.0700
      5 C         137.8164  141.9552  164.0015 C.3     1  UNL1        0.0193
      6 C         138.0059  140.4679  164.0463 C.3     1  UNL1        0.0286
      7 C         137.8813  141.8535  162.7567 C.3     1  UNL1        0.1562
      8 O         138.0526  140.5087  162.7972 O.3     1  UNL1       -0.3572
      9 N         137.5903  144.1545  162.6368 N.3     1  UNL1       -0.2926
     10 H         136.8752  144.3812  163.3280 H       1  UNL1        0.1236
     11 C         138.7515  145.0667  162.9000 C.3     1  UNL1        0.1152
     12 C         140.1511  144.5277  162.8676 C.ar    1  UNL1        0.0765
     13 C         140.9312  144.3895  164.1412 C.ar    1  UNL1        0.0193
     14 C         142.3307  143.8506  164.1087 C.ar    1  UNL1        0.0411
     15 C         142.9499  143.4499  162.8026 C.ar    1  UNL1        0.1708
     16 C         142.1698  143.5882  161.5290 C.ar    1  UNL1        0.1682
     17 N         140.7703  144.1271  161.5615 N.ar    1  UNL1       -0.2304
     18 N         142.7890  143.1875  160.2228 N.am    1  UNL1       -0.2639
     19 C         144.1885  142.6486  160.1903 C.2     1  UNL1        0.2718
     20 O         144.8077  142.2479  158.8842 O.2     1  UNL1       -0.2707
     21 C         144.9687  142.5103  161.4640 C.3     1  UNL1        0.2898
     22 O         144.3494  142.9110  162.7701 O.3     1  UNL1       -0.4628
     23 H         142.2770  143.2782  159.3869 H       1  UNL1        0.1565
     24 C         138.3481  138.2052  162.8163 C.3     1  UNL1        0.0320
     25 C         139.6836  137.6300  163.1848 C.3     1  UNL1        0.0327
     26 C         143.2391  138.7762  165.6937 C.ar    1  UNL1        0.2249
     27 C         144.4850  139.2926  165.0373 C.ar    1  UNL1        0.0593
     28 C         144.5458  139.4270  163.5446 C.ar    1  UNL1        0.0254
     29 C         143.3606  139.0449  162.7083 C.ar    1  UNL1        0.0990
     30 N         143.4214  139.1793  161.2155 N.ar    1  UNL1       -0.2400
     31 C         142.2362  138.7973  160.3792 C.ar    1  UNL1        0.1281
     32 C         140.9903  138.2808  161.0357 C.ar    1  UNL1        0.1566
     33 F         139.8051  137.8988  160.1994 F       1  UNL1       -0.2028
     34 C         140.9295  138.1465  162.5284 C.ar    1  UNL1        0.0261
     35 C         142.1147  138.5285  163.3647 C.ar    1  UNL1        0.1002
     36 N         142.0539  138.3941  164.8574 N.ar    1  UNL1       -0.2104
     37 O         143.1783  138.6418  167.1865 O.3     1  UNL1       -0.4602
     38 C         142.5576  139.7290  168.0127 C.3     1  UNL1        0.2075
     39 C         139.7940  140.2737  168.6932 C.3     1  UNL1        0.1028
     40 C         139.7784  139.9624  167.2260 C.3     1  UNL1        0.0155
     41 C         141.0724  139.9375  167.9843 C.3     1  UNL1        0.0549
     42 C         139.0649  140.6475  169.9497 C.2     1  UNL1        0.3167
     43 O         138.0553  139.7075  170.5388 O.2     1  UNL1       -0.2501
     44 C         140.1910  142.9887  169.9246 C.3     1  UNL1        0.2556
     45 O         139.3453  141.9613  170.6169 O.3     1  UNL1       -0.4444
@<TRIPOS>BOND
     1    44    45    1
     2    45    42    1
     3    42    43    2
     4    39    42    1
     5    39    40    1
     6    40    41    1
     7    41    38    1
     8    38    37    1
     9    37    26    1
    10    26    27   ar
    11    27    28   ar
    12    28    29   ar
    13    29    30   ar
    14    30    31   ar
    15    31    32   ar
    16    32    33    1
    17    32    34   ar
    18    34    25    1
    19    25    24    1
    20    24     1    1
    21     1     2    1
    22     2     3    1
    23     3     4    1
    24     4     9    1
    25     9    11    1
    26    11    12    1
    27    12    13   ar
    28    13    14   ar
    29    14    15   ar
    30    15    16   ar
    31    16    17   ar
    32    16    18    1
    33    18    19   am
    34    19    20    2
    35    19    21    1
    36    21    22    1
    37     4     5    1
    38     5     6    1
    39     4     7    1
    40     7     8    1
    41    34    35   ar
    42    35    36   ar
    43    41    39    1
    44    36    26   ar
    45    35    29   ar
    46     6     1    1
    47     8     1    1
    48    17    12   ar
    49    22    15    1
    50     9    10    1
    51    18    23    1
@<TRIPOS>MOLECULE
*****
 45 51 0 0 0
SMALL
GASTEIGER

@<TRIPOS>ATOM
      1 C         141.8798  138.1758  164.0709 C.3     1  UNL1        0.0932
      2 C         142.5696  138.9328  165.1668 C.3     1  UNL1        0.0286
      3 C         143.8000  139.7358  164.8643 C.3     1  UNL1        0.0193
      4 C         144.3405  139.7817  163.4659 C.3     1  UNL1        0.0700
      5 C         143.6506  139.0247  162.3699 C.3     1  UNL1        0.0193
      6 C         142.4203  138.2218  162.6724 C.3     1  UNL1        0.0286
      7 C         143.6635  139.3280  163.5831 C.3     1  UNL1        0.1562
      8 O         142.5510  138.6019  163.8567 O.3     1  UNL1       -0.3572
      9 N         145.5708  140.5847  163.1633 N.3     1  UNL1       -0.2926
     10 H         145.9852  140.1830  162.3223 H       1  UNL1        0.1236
     11 C         145.4633  142.0624  162.9296 C.3     1  UNL1        0.1152
     12 C         144.4532  142.5965  161.9577 C.ar    1  UNL1        0.0765
     13 C         144.4946  142.1671  160.5211 C.ar    1  UNL1        0.0193
     14 C         143.4845  142.7012  159.5493 C.ar    1  UNL1        0.0411
     15 C         142.4330  143.6647  160.0141 C.ar    1  UNL1        0.1708
     16 C         142.3916  144.0941  161.4507 C.ar    1  UNL1        0.1682
     17 N         143.4017  143.5600  162.4225 N.ar    1  UNL1       -0.2304
     18 N         141.3401  145.0576  161.9154 N.am    1  UNL1       -0.2639
     19 C         140.3301  145.5917  160.9436 C.2     1  UNL1        0.2718
     20 O         139.2786  146.5552  161.4084 O.2     1  UNL1       -0.2707
     21 C         140.3714  145.1623  159.5070 C.3     1  UNL1        0.2898
     22 O         141.4229  144.1988  159.0422 O.3     1  UNL1       -0.4628
     23 H         141.3129  145.3395  162.8584 H       1  UNL1        0.1565
     24 C         140.6494  137.3728  164.3734 C.3     1  UNL1        0.0320
     25 C         139.3566  138.0686  164.6808 C.3     1  UNL1        0.0327
     26 C         139.9357  142.3895  165.7960 C.ar    1  UNL1        0.2249
     27 C         139.4324  143.4724  164.8882 C.ar    1  UNL1        0.0593
     28 C         138.7361  143.1149  163.6087 C.ar    1  UNL1        0.0254
     29 C         138.5430  141.6745  163.2369 C.ar    1  UNL1        0.0990
     30 N         137.8466  141.3170  161.9573 N.ar    1  UNL1       -0.2400
     31 C         137.6536  139.8767  161.5856 C.ar    1  UNL1        0.1281
     32 C         138.1569  138.7939  162.4935 C.ar    1  UNL1        0.1566
     33 F         137.9639  137.3535  162.1217 F       1  UNL1       -0.2028
     34 C         138.8533  139.1514  163.7730 C.ar    1  UNL1        0.0261
     35 C         139.0463  140.5917  164.1447 C.ar    1  UNL1        0.1002
     36 N         139.7427  140.9492  165.4243 N.ar    1  UNL1       -0.2104
     37 O         140.6321  142.7470  167.0756 O.3     1  UNL1       -0.4602
     38 C         142.1057  142.5071  167.2198 C.3     1  UNL1        0.2075
     39 C         142.6275  140.7746  169.4834 C.3     1  UNL1        0.1028
     40 C         143.5962  141.9100  169.6321 C.3     1  UNL1        0.0155
     41 C         142.6449  141.8829  168.4727 C.3     1  UNL1        0.0549
     42 C         142.0580  139.4792  169.9809 C.2     1  UNL1        0.3167
     43 O         142.9356  138.2679  170.0924 O.2     1  UNL1       -0.2501
     44 C         139.5947  140.2382  169.6555 C.3     1  UNL1        0.2556
     45 O         140.6110  139.3951  170.3670 O.3     1  UNL1       -0.4444
@<TRIPOS>BOND
     1    44    45    1
     2    45    42    1
     3    42    43    2
     4    39    42    1
     5    39    40    1
     6    40    41    1
     7    41    38    1
     8    38    37    1
     9    37    26    1
    10    26    27   ar
    11    27    28   ar
    12    28    29   ar
    13    29    30   ar
    14    30    31   ar
    15    31    32   ar
    16    32    33    1
    17    32    34   ar
    18    34    25    1
    19    25    24    1
    20    24     1    1
    21     1     2    1
    22     2     3    1
    23     3     4    1
    24     4     9    1
    25     9    11    1
    26    11    12    1
    27    12    13   ar
    28    13    14   ar
    29    14    15   ar
    30    15    16   ar
    31    16    17   ar
    32    16    18    1
    33    18    19   am
    34    19    20    2
    35    19    21    1
    36    21    22    1
    37     4     5    1
    38     5     6    1
    39     4     7    1
    40     7     8    1
    41    34    35   ar
    42    35    36   ar
    43    41    39    1
    44    36    26   ar
    45    35    29   ar
    46     6     1    1
    47     8     1    1
    48    17    12   ar
    49    22    15    1
    50     9    10    1
    51    18    23    1
@<TRIPOS>MOLECULE
*****
 45 51 0 0 0
SMALL
GASTEIGER

@<TRIPOS>ATOM
      1 C         138.3818  139.9215  164.2119 C.3     1  UNL1        0.0932
      2 C         138.6381  141.1165  165.0816 C.3     1  UNL1        0.0286
      3 C         138.3761  142.4967  164.5559 C.3     1  UNL1        0.0193
      4 C         137.8579  142.6820  163.1605 C.3     1  UNL1        0.0700
      5 C         137.6015  141.4869  162.2908 C.3     1  UNL1        0.0193
      6 C         137.8635  140.1068  162.8165 C.3     1  UNL1        0.0286
      7 C         137.9863  141.9061  163.4045 C.3     1  UNL1        0.1562
      8 O         138.2232  140.6581  163.8799 O.3     1  UNL1       -0.3572
      9 N         137.5959  144.0622  162.6348 N.3     1  UNL1       -0.2926
     10 H         136.9853  144.5232  163.3093 H       1  UNL1        0.1236
     11 C         138.7408  144.9965  162.3776 C.3     1  UNL1        0.1152
     12 C         139.9529  144.5121  161.6385 C.ar    1  UNL1        0.0765
     13 C         140.0007  144.5935  160.1415 C.ar    1  UNL1        0.0193
     14 C         141.2128  144.1091  159.4025 C.ar    1  UNL1        0.0411
     15 C         142.3769  143.5432  160.1604 C.ar    1  UNL1        0.1708
     16 C         142.3291  143.4617  161.6574 C.ar    1  UNL1        0.1682
     17 N         141.1170  143.9462  162.3965 N.ar    1  UNL1       -0.2304
     18 N         143.4932  142.8958  162.4154 N.am    1  UNL1       -0.2639
     19 C         144.7053  142.4114  161.6763 C.2     1  UNL1        0.2718
     20 O         145.8694  141.8455  162.4343 O.2     1  UNL1       -0.2707
     21 C         144.7532  142.4928  160.1792 C.3     1  UNL1        0.2898
     22 O         143.5890  143.0587  159.4213 O.3     1  UNL1       -0.4628
     23 H         143.4618  142.8424  163.3979 H       1  UNL1        0.1565
     24 C         138.6437  138.5412  164.7376 C.3     1  UNL1        0.0320
     25 C         139.4562  137.5728  163.9301 C.3     1  UNL1        0.0327
     26 C         143.2632  138.5822  166.1068 C.ar    1  UNL1        0.2249
     27 C         144.4601  139.0631  165.3411 C.ar    1  UNL1        0.0593
     28 C         144.3879  139.2076  163.8499 C.ar    1  UNL1        0.0254
     29 C         143.1189  138.8711  163.1243 C.ar    1  UNL1        0.0990
     30 N         143.0467  139.0156  161.6330 N.ar    1  UNL1       -0.2400
     31 C         141.7777  138.6792  160.9074 C.ar    1  UNL1        0.1281
     32 C         140.5808  138.1982  161.6732 C.ar    1  UNL1        0.1566
     33 F         139.3118  137.8618  160.9476 F       1  UNL1       -0.2028
     34 C         140.6530  138.0538  163.1644 C.ar    1  UNL1        0.0261
     35 C         141.9220  138.3902  163.8900 C.ar    1  UNL1        0.1002
     36 N         141.9942  138.2457  165.3813 N.ar    1  UNL1       -0.2104
     37 O         143.3354  138.4377  167.5981 O.3     1  UNL1       -0.4602
     38 C         142.6424  139.4316  168.4824 C.3     1  UNL1        0.2075
     39 C         142.6875  141.9898  167.1219 C.3     1  UNL1        0.1028
     40 C         142.7504  142.3256  168.5824 C.3     1  UNL1        0.0155
     41 C         142.6834  140.8925  168.1446 C.3     1  UNL1        0.0549
     42 C         142.6536  142.4294  165.6882 C.2     1  UNL1        0.3167
     43 O         141.8500  141.6557  164.6854 O.2     1  UNL1       -0.2501
     44 C         144.8759  143.7728  165.6074 C.3     1  UNL1        0.2556
     45 O         143.4231  143.6427  165.2573 O.3     1  UNL1       -0.4444
@<TRIPOS>BOND
     1    44    45    1
     2    45    42    1
     3    42    43    2
     4    39    42    1
     5    39    40    1
     6    40    41    1
     7    41    38    1
     8    38    37    1
     9    37    26    1
    10    26    27   ar
    11    27    28   ar
    12    28    29   ar
    13    29    30   ar
    14    30    31   ar
    15    31    32   ar
    16    32    33    1
    17    32    34   ar
    18    34    25    1
    19    25    24    1
    20    24     1    1
    21     1     2    1
    22     2     3    1
    23     3     4    1
    24     4     9    1
    25     9    11    1
    26    11    12    1
    27    12    13   ar
    28    13    14   ar
    29    14    15   ar
    30    15    16   ar
    31    16    17   ar
    32    16    18    1
    33    18    19   am
    34    19    20    2
    35    19    21    1
    36    21    22    1
    37     4     5    1
    38     5     6    1
    39     4     7    1
    40     7     8    1
    41    34    35   ar
    42    35    36   ar
    43    41    39    1
    44    36    26   ar
    45    35    29   ar
    46     6     1    1
    47     8     1    1
    48    17    12   ar
    49    22    15    1
    50     9    10    1
    51    18    23    1
@<TRIPOS>MOLECULE
*****
 45 51 0 0 0
SMALL
GASTEIGER

@<TRIPOS>ATOM
      1 C         138.5934  140.7701  165.4114 C.3     1  UNL1        0.0932
      2 C         137.9948  141.4823  164.2349 C.3     1  UNL1        0.0286
      3 C         138.4499  142.8685  163.8863 C.3     1  UNL1        0.0193
      4 C         139.5036  143.5424  164.7144 C.3     1  UNL1        0.0700
      5 C         140.1022  142.8300  165.8910 C.3     1  UNL1        0.0193
      6 C         139.6470  141.4439  166.2395 C.3     1  UNL1        0.0286
      7 C         139.2863  142.7821  164.9443 C.3     1  UNL1        0.1562
      8 O         138.8748  141.5288  165.2594 O.3     1  UNL1       -0.3572
      9 N         139.9587  144.9285  164.3659 N.3     1  UNL1       -0.2926
     10 H         140.0368  145.4422  165.2436 H       1  UNL1        0.1236
     11 C         141.2496  145.1310  163.6293 C.3     1  UNL1        0.1152
     12 C         141.4403  144.5263  162.2698 C.ar    1  UNL1        0.0765
     13 C         140.8814  145.2124  161.0587 C.ar    1  UNL1        0.0193
     14 C         141.0720  144.6077  159.6993 C.ar    1  UNL1        0.0411
     15 C         141.8216  143.3169  159.5511 C.ar    1  UNL1        0.1708
     16 C         142.3805  142.6308  160.7622 C.ar    1  UNL1        0.1682
     17 N         142.1898  143.2355  162.1216 N.ar    1  UNL1       -0.2304
     18 N         143.1301  141.3400  160.6140 N.am    1  UNL1       -0.2639
     19 C         143.3208  140.7353  159.2546 C.2     1  UNL1        0.2718
     20 O         144.0704  139.4445  159.1063 O.2     1  UNL1       -0.2707
     21 C         142.7619  141.4214  158.0434 C.3     1  UNL1        0.2898
     22 O         142.0123  142.7122  158.1916 O.3     1  UNL1       -0.4628
     23 H         143.4969  140.8897  161.4089 H       1  UNL1        0.1565
     24 C         138.1382  139.3839  165.7600 C.3     1  UNL1        0.0320
     25 C         138.7506  138.1988  165.0740 C.3     1  UNL1        0.0327
     26 C         143.0593  138.8174  166.2153 C.ar    1  UNL1        0.2249
     27 C         144.0957  139.0202  165.1500 C.ar    1  UNL1        0.0593
     28 C         143.6958  139.0168  163.7043 C.ar    1  UNL1        0.0254
     29 C         142.2595  138.8106  163.3239 C.ar    1  UNL1        0.0990
     30 N         141.8596  138.8072  161.8781 N.ar    1  UNL1       -0.2400
     31 C         140.4234  138.6009  161.4977 C.ar    1  UNL1        0.1281
     32 C         139.3871  138.3981  162.5631 C.ar    1  UNL1        0.1566
     33 F         137.9508  138.1919  162.1827 F       1  UNL1       -0.2028
     34 C         139.7870  138.4016  164.0088 C.ar    1  UNL1        0.0261
     35 C         141.2232  138.6078  164.3892 C.ar    1  UNL1        0.1002
     36 N         141.6231  138.6112  165.8348 N.ar    1  UNL1       -0.2104
     37 O         143.4592  138.8208  167.6610 O.3     1  UNL1       -0.4602
     38 C         142.5434  139.4127  168.6911 C.3     1  UNL1        0.2075
     39 C         141.6429  142.1140  169.2290 C.3     1  UNL1        0.1028
     40 C         143.0218  142.2706  168.6596 C.3     1  UNL1        0.0155
     41 C         142.4303  140.9023  168.8268 C.3     1  UNL1        0.0549
     42 C         140.3923  142.7232  169.7900 C.2     1  UNL1        0.3167
     43 O         140.1367  144.1925  169.6298 O.2     1  UNL1       -0.2501
     44 C         139.0194  140.5234  169.9520 C.3     1  UNL1        0.2556
     45 O         139.3972  141.8630  170.5111 O.3     1  UNL1       -0.4444
@<TRIPOS>BOND
     1    44    45    1
     2    45    42    1
     3    42    43    2
     4    39    42    1
     5    39    40    1
     6    40    41    1
     7    41    38    1
     8    38    37    1
     9    37    26    1
    10    26    27   ar
    11    27    28   ar
    12    28    29   ar
    13    29    30   ar
    14    30    31   ar
    15    31    32   ar
    16    32    33    1
    17    32    34   ar
    18    34    25    1
    19    25    24    1
    20    24     1    1
    21     1     2    1
    22     2     3    1
    23     3     4    1
    24     4     9    1
    25     9    11    1
    26    11    12    1
    27    12    13   ar
    28    13    14   ar
    29    14    15   ar
    30    15    16   ar
    31    16    17   ar
    32    16    18    1
    33    18    19   am
    34    19    20    2
    35    19    21    1
    36    21    22    1
    37     4     5    1
    38     5     6    1
    39     4     7    1
    40     7     8    1
    41    34    35   ar
    42    35    36   ar
    43    41    39    1
    44    36    26   ar
    45    35    29   ar
    46     6     1    1
    47     8     1    1
    48    17    12   ar
    49    22    15    1
    50     9    10    1
    51    18    23    1
@<TRIPOS>MOLECULE
*****
 45 51 0 0 0
SMALL
GASTEIGER

@<TRIPOS>ATOM
      1 C         140.1648  143.7603  164.3615 C.3     1  UNL1        0.0932
      2 C         141.1686  144.2329  163.3521 C.3     1  UNL1        0.0286
      3 C         142.6300  143.9732  163.5691 C.3     1  UNL1        0.0193
      4 C         143.0875  143.2408  164.7956 C.3     1  UNL1        0.0700
      5 C         142.0836  142.7681  165.8051 C.3     1  UNL1        0.0193
      6 C         140.6223  143.0279  165.5880 C.3     1  UNL1        0.0286
      7 C         142.2762  143.3597  164.7202 C.3     1  UNL1        0.1562
      8 O         140.9549  143.5946  164.5238 O.3     1  UNL1       -0.3572
      9 N         144.5487  142.9810  165.0127 N.3     1  UNL1       -0.2926
     10 H         144.6394  142.5652  165.9397 H       1  UNL1        0.1236
     11 C         145.3018  142.0950  164.0652 C.3     1  UNL1        0.1152
     12 C         144.5966  140.9667  163.3725 C.ar    1  UNL1        0.0765
     13 C         143.8645  139.9335  164.1765 C.ar    1  UNL1        0.0193
     14 C         143.1594  138.8053  163.4838 C.ar    1  UNL1        0.0411
     15 C         143.1864  138.7103  161.9870 C.ar    1  UNL1        0.1708
     16 C         143.9186  139.7434  161.1830 C.ar    1  UNL1        0.1682
     17 N         144.6237  140.8716  161.8757 N.ar    1  UNL1       -0.2304
     18 N         143.9456  139.6484  159.6863 N.am    1  UNL1       -0.2639
     19 C         143.2405  138.5202  158.9935 C.2     1  UNL1        0.2718
     20 O         143.2676  138.4251  157.4968 O.2     1  UNL1       -0.2707
     21 C         142.5083  137.4869  159.7975 C.3     1  UNL1        0.2898
     22 O         142.4813  137.5820  161.2943 O.3     1  UNL1       -0.4628
     23 H         144.4262  140.3265  159.1586 H       1  UNL1        0.1565
     24 C         138.7035  144.0200  164.1445 C.3     1  UNL1        0.0320
     25 C         137.7310  142.8780  164.1421 C.3     1  UNL1        0.0327
     26 C         138.6410  139.0425  166.3125 C.ar    1  UNL1        0.2249
     27 C         138.9493  137.7965  165.5364 C.ar    1  UNL1        0.0593
     28 C         138.9543  137.8290  164.0368 C.ar    1  UNL1        0.0254
     29 C         138.6509  139.1075  163.3133 C.ar    1  UNL1        0.0990
     30 N         138.6559  139.1400  161.8136 N.ar    1  UNL1       -0.2400
     31 C         138.3525  140.4185  161.0901 C.ar    1  UNL1        0.1281
     32 C         138.0442  141.6645  161.8664 C.ar    1  UNL1        0.1566
     33 F         137.7409  142.9430  161.1429 F       1  UNL1       -0.2028
     34 C         138.0393  141.6320  163.3660 C.ar    1  UNL1        0.0261
     35 C         138.3426  140.3535  164.0894 C.ar    1  UNL1        0.1002
     36 N         138.3377  140.3210  165.5890 N.ar    1  UNL1       -0.2104
     37 O         138.6361  139.0100  167.8122 O.3     1  UNL1       -0.4602
     38 C         139.2697  140.1260  168.5886 C.3     1  UNL1        0.2075
     39 C         141.9744  141.1202  168.8954 C.3     1  UNL1        0.1028
     40 C         142.1212  139.8092  168.1814 C.3     1  UNL1        0.0155
     41 C         140.7585  140.3076  168.5617 C.3     1  UNL1        0.0549
     42 C         142.5915  142.3463  169.5002 C.2     1  UNL1        0.3167
     43 O         144.0324  142.6687  169.2363 O.2     1  UNL1       -0.2501
     44 C         140.4797  143.8185  169.8512 C.3     1  UNL1        0.2556
     45 O         141.7677  143.2500  170.3689 O.3     1  UNL1       -0.4444
@<TRIPOS>BOND
     1    44    45    1
     2    45    42    1
     3    42    43    2
     4    39    42    1
     5    39    40    1
     6    40    41    1
     7    41    38    1
     8    38    37    1
     9    37    26    1
    10    26    27   ar
    11    27    28   ar
    12    28    29   ar
    13    29    30   ar
    14    30    31   ar
    15    31    32   ar
    16    32    33    1
    17    32    34   ar
    18    34    25    1
    19    25    24    1
    20    24     1    1
    21     1     2    1
    22     2     3    1
    23     3     4    1
    24     4     9    1
    25     9    11    1
    26    11    12    1
    27    12    13   ar
    28    13    14   ar
    29    14    15   ar
    30    15    16   ar
    31    16    17   ar
    32    16    18    1
    33    18    19   am
    34    19    20    2
    35    19    21    1
    36    21    22    1
    37     4     5    1
    38     5     6    1
    39     4     7    1
    40     7     8    1
    41    34    35   ar
    42    35    36   ar
    43    41    39    1
    44    36    26   ar
    45    35    29   ar
    46     6     1    1
    47     8     1    1
    48    17    12   ar
    49    22    15    1
    50     9    10    1
    51    18    23    1
@<TRIPOS>MOLECULE
*****
 45 51 0 0 0
SMALL
GASTEIGER

@<TRIPOS>ATOM
      1 C         143.6911  139.0613  161.8500 C.3     1  UNL1        0.0932
      2 C         143.9986  140.3689  161.1826 C.3     1  UNL1        0.0286
      3 C         144.7062  141.4511  161.9431 C.3     1  UNL1        0.0193
      4 C         145.1063  141.2255  163.3711 C.3     1  UNL1        0.0700
      5 C         144.7987  139.9178  164.0385 C.3     1  UNL1        0.0193
      6 C         144.0911  138.8357  163.2780 C.3     1  UNL1        0.0286
      7 C         144.7204  140.6028  162.9951 C.3     1  UNL1        0.1562
      8 O         144.0806  139.6244  162.3074 O.3     1  UNL1       -0.3572
      9 N         145.8138  142.3075  164.1316 N.3     1  UNL1       -0.2926
     10 H         146.2955  142.8850  163.4426 H       1  UNL1        0.1236
     11 C         145.0333  143.2407  165.0091 C.3     1  UNL1        0.1152
     12 C         143.5654  143.4403  164.7734 C.ar    1  UNL1        0.0765
     13 C         142.5641  142.7028  165.6121 C.ar    1  UNL1        0.0193
     14 C         141.0963  142.9023  165.3763 C.ar    1  UNL1        0.0411
     15 C         140.6298  143.8394  164.3019 C.ar    1  UNL1        0.1708
     16 C         141.6311  144.5769  163.4633 C.ar    1  UNL1        0.1682
     17 N         143.0989  144.3773  163.6990 N.ar    1  UNL1       -0.2304
     18 N         141.1646  145.5139  162.3889 N.am    1  UNL1       -0.2639
     19 C         139.6968  145.7134  162.1531 C.2     1  UNL1        0.2718
     20 O         139.2302  146.6505  161.0788 O.2     1  UNL1       -0.2707
     21 C         138.6953  144.9759  162.9918 C.3     1  UNL1        0.2898
     22 O         139.1619  144.0389  164.0662 O.3     1  UNL1       -0.4628
     23 H         141.8218  145.9979  161.8384 H       1  UNL1        0.1565
     24 C         142.9835  137.9791  161.0894 C.3     1  UNL1        0.0320
     25 C         141.5613  137.6365  161.4210 C.3     1  UNL1        0.0327
     26 C         139.1693  139.7987  164.5600 C.ar    1  UNL1        0.2249
     27 C         138.0607  140.7236  164.1533 C.ar    1  UNL1        0.0593
     28 C         137.7494  140.9278  162.7002 C.ar    1  UNL1        0.0254
     29 C         138.5467  140.2070  161.6539 C.ar    1  UNL1        0.0990
     30 N         138.2353  140.4113  160.2008 N.ar    1  UNL1       -0.2400
     31 C         139.0327  139.6905  159.1545 C.ar    1  UNL1        0.1281
     32 C         140.1413  138.7656  159.5612 C.ar    1  UNL1        0.1566
     33 F         140.9387  138.0448  158.5149 F       1  UNL1       -0.2028
     34 C         140.4527  138.5614  161.0143 C.ar    1  UNL1        0.0261
     35 C         139.6553  139.2822  162.0606 C.ar    1  UNL1        0.1002
     36 N         139.9667  139.0780  163.5136 N.ar    1  UNL1       -0.2104
     37 O         139.4807  139.5945  166.0131 O.3     1  UNL1       -0.4602
     38 C         140.9005  139.3993  166.4556 C.3     1  UNL1        0.2075
     39 C         141.0095  140.3437  169.1931 C.3     1  UNL1        0.1028
     40 C         142.4384  140.3056  168.7384 C.3     1  UNL1        0.0155
     41 C         141.3418  139.8952  167.8008 C.3     1  UNL1        0.0549
     42 C         139.9927  140.6246  170.2594 C.2     1  UNL1        0.3167
     43 O         139.3883  139.4927  171.0363 O.2     1  UNL1       -0.2501
     44 C         140.2236  143.1730  169.8099 C.3     1  UNL1        0.2556
     45 O         139.5801  142.0374  170.5489 O.3     1  UNL1       -0.4444
@<TRIPOS>BOND
     1    44    45    1
     2    45    42    1
     3    42    43    2
     4    39    42    1
     5    39    40    1
     6    40    41    1
     7    41    38    1
     8    38    37    1
     9    37    26    1
    10    26    27   ar
    11    27    28   ar
    12    28    29   ar
    13    29    30   ar
    14    30    31   ar
    15    31    32   ar
    16    32    33    1
    17    32    34   ar
    18    34    25    1
    19    25    24    1
    20    24     1    1
    21     1     2    1
    22     2     3    1
    23     3     4    1
    24     4     9    1
    25     9    11    1
    26    11    12    1
    27    12    13   ar
    28    13    14   ar
    29    14    15   ar
    30    15    16   ar
    31    16    17   ar
    32    16    18    1
    33    18    19   am
    34    19    20    2
    35    19    21    1
    36    21    22    1
    37     4     5    1
    38     5     6    1
    39     4     7    1
    40     7     8    1
    41    34    35   ar
    42    35    36   ar
    43    41    39    1
    44    36    26   ar
    45    35    29   ar
    46     6     1    1
    47     8     1    1
    48    17    12   ar
    49    22    15    1
    50     9    10    1
    51    18    23    1
@<TRIPOS>MOLECULE
*****
 45 51 0 0 0
SMALL
GASTEIGER

@<TRIPOS>ATOM
      1 C         138.4105  139.5235  163.6069 C.3     1  UNL1        0.0932
      2 C         137.7017  140.4268  162.6417 C.3     1  UNL1        0.0286
      3 C         137.4981  141.8739  162.9800 C.3     1  UNL1        0.0193
      4 C         138.0033  142.4177  164.2836 C.3     1  UNL1        0.0700
      5 C         138.7120  141.5142  165.2488 C.3     1  UNL1        0.0193
      6 C         138.9156  140.0672  164.9104 C.3     1  UNL1        0.0286
      7 C         138.1384  141.6178  164.1423 C.3     1  UNL1        0.1562
      8 O         138.3225  140.3093  163.8363 O.3     1  UNL1       -0.3572
      9 N         137.7997  143.8647  164.6219 N.3     1  UNL1       -0.2926
     10 H         137.5572  143.9044  165.6119 H       1  UNL1        0.1236
     11 C         138.9118  144.8484  164.4087 C.3     1  UNL1        0.1152
     12 C         139.7997  144.7276  163.2057 C.ar    1  UNL1        0.0765
     13 C         141.1087  144.0025  163.3095 C.ar    1  UNL1        0.0193
     14 C         141.9965  143.8817  162.1065 C.ar    1  UNL1        0.0411
     15 C         141.5753  144.4859  160.7998 C.ar    1  UNL1        0.1708
     16 C         140.2663  145.2110  160.6960 C.ar    1  UNL1        0.1682
     17 N         139.3785  145.3318  161.8990 N.ar    1  UNL1       -0.2304
     18 N         139.8451  145.8152  159.3893 N.am    1  UNL1       -0.2639
     19 C         140.7329  145.6944  158.1863 C.2     1  UNL1        0.2718
     20 O         140.3117  146.2986  156.8796 O.2     1  UNL1       -0.2707
     21 C         142.0420  144.9693  158.2901 C.3     1  UNL1        0.2898
     22 O         142.4632  144.3650  159.5968 O.3     1  UNL1       -0.4628
     23 H         138.9860  146.2911  159.3212 H       1  UNL1        0.1565
     24 C         138.6141  138.0763  163.2686 C.3     1  UNL1        0.0320
     25 C         139.9688  137.5875  162.8494 C.3     1  UNL1        0.0327
     26 C         143.3321  139.2249  165.3508 C.ar    1  UNL1        0.2249
     27 C         144.3200  140.1788  164.7475 C.ar    1  UNL1        0.0593
     28 C         144.1867  140.5870  163.3103 C.ar    1  UNL1        0.0254
     29 C         143.0656  140.0412  162.4765 C.ar    1  UNL1        0.0990
     30 N         142.9324  140.4494  161.0392 N.ar    1  UNL1       -0.2400
     31 C         141.8113  139.9037  160.2053 C.ar    1  UNL1        0.1281
     32 C         140.8234  138.9497  160.8088 C.ar    1  UNL1        0.1566
     33 F         139.7023  138.4039  159.9750 F       1  UNL1       -0.2028
     34 C         140.9567  138.5415  162.2460 C.ar    1  UNL1        0.0261
     35 C         142.0778  139.0873  163.0798 C.ar    1  UNL1        0.1002
     36 N         142.2110  138.6791  164.5170 N.ar    1  UNL1       -0.2104
     37 O         143.4653  138.8166  166.7881 O.3     1  UNL1       -0.4602
     38 C         142.6519  139.5071  167.8424 C.3     1  UNL1        0.2075
     39 C         142.6735  142.1978  168.9180 C.3     1  UNL1        0.1028
     40 C         143.0978  142.3482  167.4872 C.3     1  UNL1        0.0155
     41 C         142.7771  140.9894  168.0354 C.3     1  UNL1        0.0549
     42 C         142.3686  142.8086  170.2536 C.2     1  UNL1        0.3167
     43 O         143.3282  143.7835  170.8691 O.2     1  UNL1       -0.2501
     44 C         140.7849  141.0047  171.2473 C.3     1  UNL1        0.2556
     45 O         141.1042  142.4445  170.9739 O.3     1  UNL1       -0.4444
@<TRIPOS>BOND
     1    44    45    1
     2    45    42    1
     3    42    43    2
     4    39    42    1
     5    39    40    1
     6    40    41    1
     7    41    38    1
     8    38    37    1
     9    37    26    1
    10    26    27   ar
    11    27    28   ar
    12    28    29   ar
    13    29    30   ar
    14    30    31   ar
    15    31    32   ar
    16    32    33    1
    17    32    34   ar
    18    34    25    1
    19    25    24    1
    20    24     1    1
    21     1     2    1
    22     2     3    1
    23     3     4    1
    24     4     9    1
    25     9    11    1
    26    11    12    1
    27    12    13   ar
    28    13    14   ar
    29    14    15   ar
    30    15    16   ar
    31    16    17   ar
    32    16    18    1
    33    18    19   am
    34    19    20    2
    35    19    21    1
    36    21    22    1
    37     4     5    1
    38     5     6    1
    39     4     7    1
    40     7     8    1
    41    34    35   ar
    42    35    36   ar
    43    41    39    1
    44    36    26   ar
    45    35    29   ar
    46     6     1    1
    47     8     1    1
    48    17    12   ar
    49    22    15    1
    50     9    10    1
    51    18    23    1
