@<TRIPOS>MOLECULE
*****
 33 37 0 0 0
SMALL
GASTEIGER

@<TRIPOS>ATOM
      1 C         142.1627  137.9297  164.1416 C.3     1  UNL1        0.0004
      2 C         142.9066  138.6504  165.2266 C.3     1  UNL1        0.0014
      3 C         144.0477  139.5593  164.8774 C.3     1  UNL1        0.0157
      4 C         144.4448  139.7475  163.4432 C.3     1  UNL1        0.0543
      5 C         143.7009  139.0269  162.3582 C.3     1  UNL1        0.0157
      6 C         142.5598  138.1180  162.7074 C.3     1  UNL1        0.0014
      7 N         145.5858  140.6564  163.0941 N.3     1  UNL1       -0.2935
      8 H         145.6669  140.6500  162.0773 H       1  UNL1        0.1236
      9 C         145.5551  142.0953  163.5169 C.3     1  UNL1        0.1152
     10 C         144.3175  142.9146  163.2996 C.ar    1  UNL1        0.0782
     11 C         143.8940  143.2787  161.9075 C.ar    1  UNL1        0.0562
     12 C         142.6564  144.0980  161.6902 C.ar    1  UNL1        0.1752
     13 C         141.8424  144.5532  162.8650 C.ar    1  UNL1        0.1914
     14 C         142.2660  144.1890  164.2572 C.ar    1  UNL1        0.1384
     15 N         143.5035  143.3698  164.4745 N.ar    1  UNL1       -0.2434
     16 O         140.6048  145.3725  162.6478 O.3     1  UNL1       -0.4668
     17 C         140.1813  145.7367  161.2557 C.3     1  UNL1        0.2527
     18 C         140.9953  145.2815  160.0808 C.3     1  UNL1        0.2526
     19 O         142.2329  144.4622  160.2981 O.3     1  UNL1       -0.4683
     20 C         141.0217  137.0209  164.4907 C.3     1  UNL1        0.0047
     21 C         139.6727  137.5971  164.8043 C.3     1  UNL1        0.0265
     22 C         139.4827  142.0277  165.5678 C.ar    1  UNL1        0.1388
     23 C         138.8047  142.9305  164.5802 C.ar    1  UNL1        0.0384
     24 C         138.1901  142.3564  163.3381 C.ar    1  UNL1        0.0222
     25 C         138.2534  140.8796  163.0837 C.ar    1  UNL1        0.0812
     26 N         137.6388  140.3055  161.8416 N.ar    1  UNL1       -0.2439
     27 C         137.7022  138.8286  161.5871 C.ar    1  UNL1        0.0985
     28 C         138.3801  137.9258  162.5747 C.ar    1  UNL1        0.0164
     29 C         138.9947  138.4998  163.8168 C.ar    1  UNL1       -0.0191
     30 C         138.9314  139.9768  164.0712 C.ar    1  UNL1        0.0168
     31 C         139.5460  140.5509  165.3133 C.ar    1  UNL1        0.0381
     32 C         141.3992  142.0605  167.3215 C.3     1  UNL1        0.2525
     33 O         140.0973  142.6018  166.8098 O.3     1  UNL1       -0.4714
@<TRIPOS>BOND
     1    32    33    1
     2    33    22    1
     3    22    23   ar
     4    23    24   ar
     5    24    25   ar
     6    25    26   ar
     7    26    27   ar
     8    27    28   ar
     9    28    29   ar
    10    29    21    1
    11    21    20    1
    12     1    20    1
    13     1     2    1
    14     2     3    1
    15     3     4    1
    16     4     7    1
    17     7     9    1
    18     9    10    1
    19    10    11   ar
    20    11    12   ar
    21    12    13   ar
    22    13    14   ar
    23    14    15   ar
    24    13    16    1
    25    16    17    1
    26    17    18    1
    27    18    19    1
    28     4     5    1
    29     5     6    1
    30    29    30   ar
    31    30    31   ar
    32    31    22   ar
    33    30    25   ar
    34     6     1    1
    35    15    10   ar
    36    19    12    1
    37     7     8    1
@<TRIPOS>MOLECULE
*****
 33 37 0 0 0
SMALL
GASTEIGER

@<TRIPOS>ATOM
      1 C         142.9618  144.1743  162.7338 C.3     1  UNL1        0.0004
      2 C         142.2371  143.8822  161.4534 C.3     1  UNL1        0.0014
      3 C         140.7790  144.2101  161.3252 C.3     1  UNL1        0.0157
      4 C         140.0456  144.8303  162.4775 C.3     1  UNL1        0.0543
      5 C         140.7704  145.1224  163.7579 C.3     1  UNL1        0.0157
      6 C         142.2285  144.7944  163.8860 C.3     1  UNL1        0.0014
      7 N         138.5876  145.1582  162.3494 N.3     1  UNL1       -0.2935
      8 H         138.3696  145.1466  161.3530 H       1  UNL1        0.1236
      9 C         137.5628  144.2974  163.0268 C.3     1  UNL1        0.1152
     10 C         137.7736  142.8155  163.1234 C.ar    1  UNL1        0.0782
     11 C         138.0758  142.1858  164.4508 C.ar    1  UNL1        0.0562
     12 C         138.2866  140.7038  164.5473 C.ar    1  UNL1        0.1752
     13 C         138.1952  139.8515  163.3163 C.ar    1  UNL1        0.1914
     14 C         137.8931  140.4812  161.9889 C.ar    1  UNL1        0.1384
     15 N         137.6823  141.9632  161.8924 N.ar    1  UNL1       -0.2434
     16 O         138.4060  138.3695  163.4128 O.3     1  UNL1       -0.4668
     17 C         138.7082  137.7398  164.7403 C.3     1  UNL1        0.2527
     18 C         138.7996  138.5921  165.9713 C.3     1  UNL1        0.2526
     19 O         138.5888  140.0740  165.8747 O.3     1  UNL1       -0.4683
     20 C         144.4199  143.8464  162.8619 C.3     1  UNL1        0.0047
     21 C         144.8958  142.9697  163.9822 C.3     1  UNL1        0.0265
     22 C         142.4554  141.6991  167.5430 C.ar    1  UNL1        0.1388
     23 C         141.9644  140.2858  167.6500 C.ar    1  UNL1        0.0384
     24 C         142.2868  139.2960  166.5700 C.ar    1  UNL1        0.0222
     25 C         143.1003  139.7196  165.3830 C.ar    1  UNL1        0.0812
     26 N         143.4227  138.7298  164.3030 N.ar    1  UNL1       -0.2439
     27 C         144.2362  139.1534  163.1161 C.ar    1  UNL1        0.0985
     28 C         144.7273  140.5667  163.0091 C.ar    1  UNL1        0.0164
     29 C         144.4048  141.5565  164.0891 C.ar    1  UNL1       -0.0191
     30 C         143.5913  141.1329  165.2761 C.ar    1  UNL1        0.0168
     31 C         143.2689  142.1226  166.3561 C.ar    1  UNL1        0.0381
     32 C         140.7042  142.9554  168.9938 C.3     1  UNL1        0.2525
     33 O         142.1330  142.6888  168.6231 O.3     1  UNL1       -0.4714
@<TRIPOS>BOND
     1    32    33    1
     2    33    22    1
     3    22    23   ar
     4    23    24   ar
     5    24    25   ar
     6    25    26   ar
     7    26    27   ar
     8    27    28   ar
     9    28    29   ar
    10    29    21    1
    11    21    20    1
    12     1    20    1
    13     1     2    1
    14     2     3    1
    15     3     4    1
    16     4     7    1
    17     7     9    1
    18     9    10    1
    19    10    11   ar
    20    11    12   ar
    21    12    13   ar
    22    13    14   ar
    23    14    15   ar
    24    13    16    1
    25    16    17    1
    26    17    18    1
    27    18    19    1
    28     4     5    1
    29     5     6    1
    30    29    30   ar
    31    30    31   ar
    32    31    22   ar
    33    30    25   ar
    34     6     1    1
    35    15    10   ar
    36    19    12    1
    37     7     8    1
@<TRIPOS>MOLECULE
*****
 33 37 0 0 0
SMALL
GASTEIGER

@<TRIPOS>ATOM
      1 C         139.5180  137.7625  164.5615 C.3     1  UNL1        0.0004
      2 C         140.9655  137.5620  164.9000 C.3     1  UNL1        0.0014
      3 C         141.9920  137.5172  163.8072 C.3     1  UNL1        0.0157
      4 C         141.5711  137.6730  162.3759 C.3     1  UNL1        0.0543
      5 C         140.1236  137.8735  162.0374 C.3     1  UNL1        0.0157
      6 C         139.0970  137.9183  163.1303 C.3     1  UNL1        0.0014
      7 N         142.5976  137.6282  161.2831 N.3     1  UNL1       -0.2935
      8 H         142.1374  137.9543  160.4332 H       1  UNL1        0.1236
      9 C         143.8688  138.4134  161.4156 C.3     1  UNL1        0.1152
     10 C         143.8172  139.9056  161.5586 C.ar    1  UNL1        0.0782
     11 C         143.9638  140.5349  162.9123 C.ar    1  UNL1        0.0562
     12 C         143.9121  142.0272  163.0552 C.ar    1  UNL1        0.1752
     13 C         143.7140  142.8902  161.8444 C.ar    1  UNL1        0.1914
     14 C         143.5675  142.2609  160.4907 C.ar    1  UNL1        0.1384
     15 N         143.6191  140.7687  160.3478 N.ar    1  UNL1       -0.2434
     16 O         143.6624  144.3826  161.9874 O.3     1  UNL1       -0.4668
     17 C         143.8089  145.0118  163.3411 C.3     1  UNL1        0.2527
     18 C         144.0071  144.1488  164.5519 C.3     1  UNL1        0.2526
     19 O         144.0587  142.6565  164.4089 O.3     1  UNL1       -0.4683
     20 C         138.4915  137.8073  165.6543 C.3     1  UNL1        0.0047
     21 C         138.0528  139.1265  166.2176 C.3     1  UNL1        0.0265
     22 C         138.4744  142.6407  163.4386 C.ar    1  UNL1        0.1388
     23 C         139.4886  143.7075  163.7272 C.ar    1  UNL1        0.0384
     24 C         140.3622  143.6030  164.9420 C.ar    1  UNL1        0.0222
     25 C         140.2216  142.4316  165.8684 C.ar    1  UNL1        0.0812
     26 N         141.0952  142.3271  167.0832 N.ar    1  UNL1       -0.2439
     27 C         140.9547  141.1558  168.0095 C.ar    1  UNL1        0.0985
     28 C         139.9405  140.0888  167.7210 C.ar    1  UNL1        0.0164
     29 C         139.0669  140.1933  166.5062 C.ar    1  UNL1       -0.0191
     30 C         139.2075  141.3648  165.5798 C.ar    1  UNL1        0.0168
     31 C         138.3339  141.4693  164.3650 C.ar    1  UNL1        0.0381
     32 C         138.1583  142.4227  160.8691 C.3     1  UNL1        0.2525
     33 O         137.6008  142.7452  162.2238 O.3     1  UNL1       -0.4714
@<TRIPOS>BOND
     1    32    33    1
     2    33    22    1
     3    22    23   ar
     4    23    24   ar
     5    24    25   ar
     6    25    26   ar
     7    26    27   ar
     8    27    28   ar
     9    28    29   ar
    10    29    21    1
    11    21    20    1
    12     1    20    1
    13     1     2    1
    14     2     3    1
    15     3     4    1
    16     4     7    1
    17     7     9    1
    18     9    10    1
    19    10    11   ar
    20    11    12   ar
    21    12    13   ar
    22    13    14   ar
    23    14    15   ar
    24    13    16    1
    25    16    17    1
    26    17    18    1
    27    18    19    1
    28     4     5    1
    29     5     6    1
    30    29    30   ar
    31    30    31   ar
    32    31    22   ar
    33    30    25   ar
    34     6     1    1
    35    15    10   ar
    36    19    12    1
    37     7     8    1
@<TRIPOS>MOLECULE
*****
 33 37 0 0 0
SMALL
GASTEIGER

@<TRIPOS>ATOM
      1 C         137.8645  142.9627  163.0446 C.3     1  UNL1        0.0004
      2 C         137.6922  141.8207  164.0017 C.3     1  UNL1        0.0014
      3 C         137.6872  140.4097  163.4927 C.3     1  UNL1        0.0157
      4 C         137.8545  140.1407  162.0265 C.3     1  UNL1        0.0543
      5 C         138.0267  141.2827  161.0693 C.3     1  UNL1        0.0157
      6 C         138.0317  142.6937  161.5784 C.3     1  UNL1        0.0014
      7 N         137.8494  138.7297  161.5175 N.3     1  UNL1       -0.2935
      8 H         137.2725  138.7222  160.6764 H       1  UNL1        0.1236
      9 C         139.1416  138.0560  161.1622 C.3     1  UNL1        0.1152
     10 C         140.3518  138.2513  162.0267 C.ar    1  UNL1        0.0782
     11 C         141.4093  139.2364  161.6252 C.ar    1  UNL1        0.0562
     12 C         142.6194  139.4317  162.4898 C.ar    1  UNL1        0.1752
     13 C         142.7720  138.6419  163.7558 C.ar    1  UNL1        0.1914
     14 C         141.7146  137.6568  164.1573 C.ar    1  UNL1        0.1384
     15 N         140.5044  137.4614  163.2928 N.ar    1  UNL1       -0.2434
     16 O         143.9822  138.8372  164.6204 O.3     1  UNL1       -0.4668
     17 C         145.0397  139.8223  164.2189 C.3     1  UNL1        0.2527
     18 C         144.8870  140.6122  162.9528 C.3     1  UNL1        0.2526
     19 O         143.6769  140.4169  162.0883 O.3     1  UNL1       -0.4683
     20 C         137.8695  144.3736  163.5536 C.3     1  UNL1        0.0047
     21 C         138.9111  144.8113  164.5404 C.3     1  UNL1        0.0265
     22 C         140.9464  141.9657  167.3706 C.ar    1  UNL1        0.1388
     23 C         142.3842  141.5958  167.1571 C.ar    1  UNL1        0.0384
     24 C         143.1437  142.1744  166.0002 C.ar    1  UNL1        0.0222
     25 C         142.4653  143.1229  165.0568 C.ar    1  UNL1        0.0812
     26 N         143.2248  143.7014  163.8998 N.ar    1  UNL1       -0.2439
     27 C         142.5464  144.6499  162.9564 C.ar    1  UNL1        0.0985
     28 C         141.1084  145.0199  163.1699 C.ar    1  UNL1        0.0164
     29 C         140.3489  144.4413  164.3268 C.ar    1  UNL1       -0.0191
     30 C         141.0274  143.4928  165.2703 C.ar    1  UNL1        0.0168
     31 C         140.2680  142.9142  166.4272 C.ar    1  UNL1        0.0381
     32 C         139.5276  140.0463  168.3966 C.3     1  UNL1        0.2525
     33 O         140.1869  141.3872  168.5276 O.3     1  UNL1       -0.4714
@<TRIPOS>BOND
     1    32    33    1
     2    33    22    1
     3    22    23   ar
     4    23    24   ar
     5    24    25   ar
     6    25    26   ar
     7    26    27   ar
     8    27    28   ar
     9    28    29   ar
    10    29    21    1
    11    21    20    1
    12     1    20    1
    13     1     2    1
    14     2     3    1
    15     3     4    1
    16     4     7    1
    17     7     9    1
    18     9    10    1
    19    10    11   ar
    20    11    12   ar
    21    12    13   ar
    22    13    14   ar
    23    14    15   ar
    24    13    16    1
    25    16    17    1
    26    17    18    1
    27    18    19    1
    28     4     5    1
    29     5     6    1
    30    29    30   ar
    31    30    31   ar
    32    31    22   ar
    33    30    25   ar
    34     6     1    1
    35    15    10   ar
    36    19    12    1
    37     7     8    1
@<TRIPOS>MOLECULE
*****
 33 37 0 0 0
SMALL
GASTEIGER

@<TRIPOS>ATOM
      1 C         143.9998  142.1464  164.0288 C.3     1  UNL1        0.0004
      2 C         144.3653  143.0566  162.8939 C.3     1  UNL1        0.0014
      3 C         143.5480  144.2851  162.6246 C.3     1  UNL1        0.0157
      4 C         142.3650  144.6036  163.4902 C.3     1  UNL1        0.0543
      5 C         141.9994  143.6934  164.6251 C.3     1  UNL1        0.0157
      6 C         142.8169  142.4648  164.8944 C.3     1  UNL1        0.0014
      7 N         141.5476  145.8321  163.2209 N.3     1  UNL1       -0.2935
      8 H         142.1903  146.5424  162.8704 H       1  UNL1        0.1236
      9 C         140.4000  145.7730  162.2569 C.3     1  UNL1        0.1152
     10 C         139.5957  144.5138  162.1247 C.ar    1  UNL1        0.0782
     11 C         139.9309  143.5188  161.0534 C.ar    1  UNL1        0.0562
     12 C         139.1265  142.2595  160.9211 C.ar    1  UNL1        0.1752
     13 C         137.9871  141.9953  161.8602 C.ar    1  UNL1        0.1914
     14 C         137.6519  142.9903  162.9315 C.ar    1  UNL1        0.1384
     15 N         138.4562  144.2495  163.0637 N.ar    1  UNL1       -0.2434
     16 O         137.1828  140.7361  161.7279 O.3     1  UNL1       -0.4668
     17 C         137.5179  139.7411  160.6567 C.3     1  UNL1        0.2527
     18 C         138.6574  140.0054  159.7176 C.3     1  UNL1        0.2526
     19 O         139.4617  141.2646  159.8498 O.3     1  UNL1       -0.4683
     20 C         144.8171  140.9179  164.2981 C.3     1  UNL1        0.0047
     21 C         144.1366  139.6144  164.5946 C.3     1  UNL1        0.0265
     22 C         139.7975  138.6834  165.3403 C.ar    1  UNL1        0.1388
     23 C         138.9832  138.0041  164.2795 C.ar    1  UNL1        0.0384
     24 C         139.6152  137.6352  162.9701 C.ar    1  UNL1        0.0222
     25 C         141.0615  137.9455  162.7215 C.ar    1  UNL1        0.0812
     26 N         141.6934  137.5766  161.4121 N.ar    1  UNL1       -0.2439
     27 C         143.1398  137.8869  161.1635 C.ar    1  UNL1        0.0985
     28 C         143.9542  138.5662  162.2244 C.ar    1  UNL1        0.0164
     29 C         143.3222  138.9351  163.5338 C.ar    1  UNL1       -0.0191
     30 C         141.8758  138.6248  163.7823 C.ar    1  UNL1        0.0168
     31 C         141.2439  138.9937  165.0917 C.ar    1  UNL1        0.0381
     32 C         137.7556  138.6351  166.9459 C.3     1  UNL1        0.2525
     33 O         139.1656  139.0523  166.6497 O.3     1  UNL1       -0.4714
@<TRIPOS>BOND
     1    32    33    1
     2    33    22    1
     3    22    23   ar
     4    23    24   ar
     5    24    25   ar
     6    25    26   ar
     7    26    27   ar
     8    27    28   ar
     9    28    29   ar
    10    29    21    1
    11    21    20    1
    12     1    20    1
    13     1     2    1
    14     2     3    1
    15     3     4    1
    16     4     7    1
    17     7     9    1
    18     9    10    1
    19    10    11   ar
    20    11    12   ar
    21    12    13   ar
    22    13    14   ar
    23    14    15   ar
    24    13    16    1
    25    16    17    1
    26    17    18    1
    27    18    19    1
    28     4     5    1
    29     5     6    1
    30    29    30   ar
    31    30    31   ar
    32    31    22   ar
    33    30    25   ar
    34     6     1    1
    35    15    10   ar
    36    19    12    1
    37     7     8    1
@<TRIPOS>MOLECULE
*****
 33 37 0 0 0
SMALL
GASTEIGER

@<TRIPOS>ATOM
      1 C         140.3833  140.3099  167.0750 C.3     1  UNL1        0.0004
      2 C         140.3017  141.7885  167.3137 C.3     1  UNL1        0.0014
      3 C         141.4905  142.6599  167.0355 C.3     1  UNL1        0.0157
      4 C         142.7609  142.0526  166.5185 C.3     1  UNL1        0.0543
      5 C         142.8425  140.5740  166.2798 C.3     1  UNL1        0.0157
      6 C         141.6536  139.7026  166.5581 C.3     1  UNL1        0.0014
      7 N         143.9497  142.9240  166.2403 N.3     1  UNL1       -0.2935
      8 H         144.6798  142.6440  166.8953 H       1  UNL1        0.1236
      9 C         144.5719  142.9305  164.8754 C.3     1  UNL1        0.1152
     10 C         143.7585  143.3365  163.6823 C.ar    1  UNL1        0.0782
     11 C         142.6418  144.3260  163.8374 C.ar    1  UNL1        0.0562
     12 C         141.8284  144.7321  162.6443 C.ar    1  UNL1        0.1752
     13 C         142.1317  144.1487  161.2961 C.ar    1  UNL1        0.1914
     14 C         143.2483  143.1592  161.1410 C.ar    1  UNL1        0.1384
     15 N         144.0617  142.7531  162.3341 N.ar    1  UNL1       -0.2434
     16 O         141.3182  144.5547  160.1029 O.3     1  UNL1       -0.4668
     17 C         140.2016  145.5442  160.2580 C.3     1  UNL1        0.2527
     18 C         139.8984  146.1276  161.6063 C.3     1  UNL1        0.2526
     19 O         140.7118  145.7216  162.7994 O.3     1  UNL1       -0.4683
     20 C         139.1945  139.4385  167.3532 C.3     1  UNL1        0.0047
     21 C         138.1140  139.2925  166.3229 C.3     1  UNL1        0.0265
     22 C         138.0824  142.9000  163.6332 C.ar    1  UNL1        0.1388
     23 C         138.4423  142.7581  162.1840 C.ar    1  UNL1        0.0384
     24 C         138.8127  141.4138  161.6313 C.ar    1  UNL1        0.0222
     25 C         138.8232  140.2113  162.5278 C.ar    1  UNL1        0.0812
     26 N         139.1937  138.8669  161.9751 N.ar    1  UNL1       -0.2439
     27 C         139.2042  137.6644  162.8717 C.ar    1  UNL1        0.0985
     28 C         138.8443  137.8062  164.3210 C.ar    1  UNL1        0.0164
     29 C         138.4739  139.1506  164.8737 C.ar    1  UNL1       -0.0191
     30 C         138.4634  140.3531  163.9771 C.ar    1  UNL1        0.0168
     31 C         138.0929  141.6975  164.5297 C.ar    1  UNL1        0.0381
     32 C         138.4731  144.8139  165.3461 C.3     1  UNL1        0.2525
     33 O         137.7120  144.2444  164.1859 O.3     1  UNL1       -0.4714
@<TRIPOS>BOND
     1    32    33    1
     2    33    22    1
     3    22    23   ar
     4    23    24   ar
     5    24    25   ar
     6    25    26   ar
     7    26    27   ar
     8    27    28   ar
     9    28    29   ar
    10    29    21    1
    11    21    20    1
    12     1    20    1
    13     1     2    1
    14     2     3    1
    15     3     4    1
    16     4     7    1
    17     7     9    1
    18     9    10    1
    19    10    11   ar
    20    11    12   ar
    21    12    13   ar
    22    13    14   ar
    23    14    15   ar
    24    13    16    1
    25    16    17    1
    26    17    18    1
    27    18    19    1
    28     4     5    1
    29     5     6    1
    30    29    30   ar
    31    30    31   ar
    32    31    22   ar
    33    30    25   ar
    34     6     1    1
    35    15    10   ar
    36    19    12    1
    37     7     8    1
@<TRIPOS>MOLECULE
*****
 33 37 0 0 0
SMALL
GASTEIGER

@<TRIPOS>ATOM
      1 C         139.4221  137.7340  164.4968 C.3     1  UNL1        0.0004
      2 C         140.8801  137.4963  164.7573 C.3     1  UNL1        0.0014
      3 C         141.8487  137.4501  163.6129 C.3     1  UNL1        0.0157
      4 C         141.3593  137.6414  162.2079 C.3     1  UNL1        0.0543
      5 C         139.9013  137.8791  161.9474 C.3     1  UNL1        0.0157
      6 C         138.9327  137.9253  163.0919 C.3     1  UNL1        0.0014
      7 N         142.3278  137.5951  161.0635 N.3     1  UNL1       -0.2935
      8 H         141.8956  137.0272  160.3347 H       1  UNL1        0.1236
      9 C         142.7784  138.8681  160.4103 C.3     1  UNL1        0.1152
     10 C         143.1906  140.0384  161.2531 C.ar    1  UNL1        0.0782
     11 C         142.3439  141.2762  161.2832 C.ar    1  UNL1        0.0562
     12 C         142.7562  142.4466  162.1261 C.ar    1  UNL1        0.1752
     13 C         144.0151  142.3791  162.9388 C.ar    1  UNL1        0.1914
     14 C         144.8619  141.1413  162.9087 C.ar    1  UNL1        0.1384
     15 N         144.4496  139.9710  162.0659 N.ar    1  UNL1       -0.2434
     16 O         144.4274  143.5495  163.7816 O.3     1  UNL1       -0.4668
     17 C         143.5807  144.7873  163.8118 C.3     1  UNL1        0.2527
     18 C         142.3217  144.8547  162.9990 C.3     1  UNL1        0.2526
     19 O         141.9095  143.6844  162.1562 O.3     1  UNL1       -0.4683
     20 C         138.4536  137.7802  165.6412 C.3     1  UNL1        0.0047
     21 C         138.2331  139.0637  166.3857 C.3     1  UNL1        0.0265
     22 C         142.2068  140.4139  168.0094 C.ar    1  UNL1        0.1388
     23 C         142.8273  141.6857  167.5119 C.ar    1  UNL1        0.0384
     24 C         142.1231  142.5074  166.4732 C.ar    1  UNL1        0.0222
     25 C         140.7986  142.0574  165.9320 C.ar    1  UNL1        0.0812
     26 N         140.0944  142.8791  164.8933 N.ar    1  UNL1       -0.2439
     27 C         138.7699  142.4291  164.3520 C.ar    1  UNL1        0.0985
     28 C         138.1494  141.1572  164.8495 C.ar    1  UNL1        0.0164
     29 C         138.8535  140.3355  165.8882 C.ar    1  UNL1       -0.0191
     30 C         140.1781  140.7856  166.4295 C.ar    1  UNL1        0.0168
     31 C         140.8823  139.9638  167.4682 C.ar    1  UNL1        0.0381
     32 C         142.8668  140.0065  170.4890 C.3     1  UNL1        0.2525
     33 O         142.9110  139.5921  169.0481 O.3     1  UNL1       -0.4714
@<TRIPOS>BOND
     1    32    33    1
     2    33    22    1
     3    22    23   ar
     4    23    24   ar
     5    24    25   ar
     6    25    26   ar
     7    26    27   ar
     8    27    28   ar
     9    28    29   ar
    10    29    21    1
    11    21    20    1
    12     1    20    1
    13     1     2    1
    14     2     3    1
    15     3     4    1
    16     4     7    1
    17     7     9    1
    18     9    10    1
    19    10    11   ar
    20    11    12   ar
    21    12    13   ar
    22    13    14   ar
    23    14    15   ar
    24    13    16    1
    25    16    17    1
    26    17    18    1
    27    18    19    1
    28     4     5    1
    29     5     6    1
    30    29    30   ar
    31    30    31   ar
    32    31    22   ar
    33    30    25   ar
    34     6     1    1
    35    15    10   ar
    36    19    12    1
    37     7     8    1
@<TRIPOS>MOLECULE
*****
 33 37 0 0 0
SMALL
GASTEIGER

@<TRIPOS>ATOM
      1 C         139.8529  138.1977  164.2666 C.3     1  UNL1        0.0004
      2 C         139.5115  138.3717  162.8164 C.3     1  UNL1        0.0014
      3 C         138.5488  139.4423  162.3957 C.3     1  UNL1        0.0157
      4 C         137.9274  140.3390  163.4253 C.3     1  UNL1        0.0543
      5 C         138.2688  140.1649  164.8755 C.3     1  UNL1        0.0157
      6 C         139.2316  139.0943  165.2962 C.3     1  UNL1        0.0014
      7 N         136.9647  141.4095  163.0046 N.3     1  UNL1       -0.2935
      8 H         136.1878  141.3829  163.6650 H       1  UNL1        0.1236
      9 C         137.4180  142.8373  162.9266 C.3     1  UNL1        0.1152
     10 C         138.8475  143.1536  162.6007 C.ar    1  UNL1        0.0782
     11 C         139.7285  143.7927  163.6330 C.ar    1  UNL1        0.0562
     12 C         141.1581  144.1090  163.3070 C.ar    1  UNL1        0.1752
     13 C         141.7067  143.7862  161.9488 C.ar    1  UNL1        0.1914
     14 C         140.8258  143.1472  160.9165 C.ar    1  UNL1        0.1384
     15 N         139.3962  142.8309  161.2424 N.ar    1  UNL1       -0.2434
     16 O         143.1363  144.1026  161.6228 O.3     1  UNL1       -0.4668
     17 C         144.0173  144.7416  162.6550 C.3     1  UNL1        0.2527
     18 C         143.4685  145.0644  164.0133 C.3     1  UNL1        0.2526
     19 O         142.0390  144.7480  164.3393 O.3     1  UNL1       -0.4683
     20 C         140.8156  137.1271  164.6873 C.3     1  UNL1        0.0047
     21 C         142.2253  137.4873  165.0521 C.3     1  UNL1        0.0265
     22 C         142.4032  140.6134  168.2840 C.ar    1  UNL1        0.1388
     23 C         142.9315  141.9828  167.9746 C.ar    1  UNL1        0.0384
     24 C         143.4004  142.3101  166.5879 C.ar    1  UNL1        0.0222
     25 C         143.3412  141.2681  165.5106 C.ar    1  UNL1        0.0812
     26 N         143.8101  141.5954  164.1240 N.ar    1  UNL1       -0.2439
     27 C         143.7509  140.5534  163.0467 C.ar    1  UNL1        0.0985
     28 C         143.2226  139.1840  163.3560 C.ar    1  UNL1        0.0164
     29 C         142.7536  138.8566  164.7427 C.ar    1  UNL1       -0.0191
     30 C         142.8129  139.8987  165.8200 C.ar    1  UNL1        0.0168
     31 C         142.3439  139.5714  167.2067 C.ar    1  UNL1        0.0381
     32 C         140.4680  140.1415  169.9520 C.3     1  UNL1        0.2525
     33 O         141.9342  140.2861  169.6707 O.3     1  UNL1       -0.4714
@<TRIPOS>BOND
     1    32    33    1
     2    33    22    1
     3    22    23   ar
     4    23    24   ar
     5    24    25   ar
     6    25    26   ar
     7    26    27   ar
     8    27    28   ar
     9    28    29   ar
    10    29    21    1
    11    21    20    1
    12     1    20    1
    13     1     2    1
    14     2     3    1
    15     3     4    1
    16     4     7    1
    17     7     9    1
    18     9    10    1
    19    10    11   ar
    20    11    12   ar
    21    12    13   ar
    22    13    14   ar
    23    14    15   ar
    24    13    16    1
    25    16    17    1
    26    17    18    1
    27    18    19    1
    28     4     5    1
    29     5     6    1
    30    29    30   ar
    31    30    31   ar
    32    31    22   ar
    33    30    25   ar
    34     6     1    1
    35    15    10   ar
    36    19    12    1
    37     7     8    1
@<TRIPOS>MOLECULE
*****
 33 37 0 0 0
SMALL
GASTEIGER

@<TRIPOS>ATOM
      1 C         144.7011  139.6677  164.1368 C.3     1  UNL1        0.0004
      2 C         144.0387  139.2073  162.8722 C.3     1  UNL1        0.0014
      3 C         144.0305  140.0955  161.6635 C.3     1  UNL1        0.0157
      4 C         144.6848  141.4442  161.7194 C.3     1  UNL1        0.0543
      5 C         145.3472  141.9046  162.9840 C.3     1  UNL1        0.0157
      6 C         145.3553  141.0163  164.1927 C.3     1  UNL1        0.0014
      7 N         144.6767  142.3324  160.5107 N.3     1  UNL1       -0.2935
      8 H         144.9660  141.7565  159.7201 H       1  UNL1        0.1236
      9 C         143.4130  143.0283  160.0998 C.3     1  UNL1        0.1152
     10 C         142.4475  143.5075  161.1429 C.ar    1  UNL1        0.0782
     11 C         141.0695  142.9196  161.2160 C.ar    1  UNL1        0.0562
     12 C         140.1039  143.3989  162.2592 C.ar    1  UNL1        0.1752
     13 C         140.5165  144.4660  163.2293 C.ar    1  UNL1        0.1914
     14 C         141.8946  145.0539  163.1562 C.ar    1  UNL1        0.1384
     15 N         142.8600  144.5747  162.1131 N.ar    1  UNL1       -0.2434
     16 O         139.5510  144.9452  164.2725 O.3     1  UNL1       -0.4668
     17 C         138.1730  144.3573  164.3456 C.3     1  UNL1        0.2527
     18 C         137.7604  143.2902  163.3754 C.3     1  UNL1        0.2526
     19 O         138.7259  142.8109  162.3323 O.3     1  UNL1       -0.4683
     20 C         144.7092  138.7795  165.3455 C.3     1  UNL1        0.0047
     21 C         143.4174  138.2586  165.9022 C.3     1  UNL1        0.0265
     22 C         139.4352  138.6674  163.8466 C.ar    1  UNL1        0.1388
     23 C         138.4097  139.6225  164.3815 C.ar    1  UNL1        0.0384
     24 C         138.7116  140.4413  165.6015 C.ar    1  UNL1        0.0222
     25 C         140.0389  140.3051  166.2866 C.ar    1  UNL1        0.0812
     26 N         140.3408  141.1239  167.5067 N.ar    1  UNL1       -0.2439
     27 C         141.6681  140.9876  168.1918 C.ar    1  UNL1        0.0985
     28 C         142.6937  140.0325  167.6570 C.ar    1  UNL1        0.0164
     29 C         142.3919  139.2137  166.4370 C.ar    1  UNL1       -0.0191
     30 C         141.0644  139.3500  165.7518 C.ar    1  UNL1        0.0168
     31 C         140.7626  138.5311  164.5318 C.ar    1  UNL1        0.0381
     32 C         137.9393  138.1762  161.7800 C.3     1  UNL1        0.2525
     33 O         139.1334  137.8486  162.6266 O.3     1  UNL1       -0.4714
@<TRIPOS>BOND
     1    32    33    1
     2    33    22    1
     3    22    23   ar
     4    23    24   ar
     5    24    25   ar
     6    25    26   ar
     7    26    27   ar
     8    27    28   ar
     9    28    29   ar
    10    29    21    1
    11    21    20    1
    12     1    20    1
    13     1     2    1
    14     2     3    1
    15     3     4    1
    16     4     7    1
    17     7     9    1
    18     9    10    1
    19    10    11   ar
    20    11    12   ar
    21    12    13   ar
    22    13    14   ar
    23    14    15   ar
    24    13    16    1
    25    16    17    1
    26    17    18    1
    27    18    19    1
    28     4     5    1
    29     5     6    1
    30    29    30   ar
    31    30    31   ar
    32    31    22   ar
    33    30    25   ar
    34     6     1    1
    35    15    10   ar
    36    19    12    1
    37     7     8    1
