@<TRIPOS>MOLECULE
*****
 32 35 0 0 0
SMALL
GASTEIGER

@<TRIPOS>ATOM
      1 C         142.3343  142.3225  165.7534 C.ar    1  UNL1       -0.0177
      2 C         140.8792  142.6834  165.7047 C.ar    1  UNL1       -0.0043
      3 C         139.8704  141.8284  166.4126 C.ar    1  UNL1       -0.0046
      4 C         140.3166  140.6125  167.1691 C.ar    1  UNL1       -0.0221
      5 C         141.7717  140.2515  167.2178 C.ar    1  UNL1       -0.0046
      6 C         142.7805  141.1066  166.5099 C.ar    1  UNL1       -0.0043
      7 C         143.3432  143.1776  165.0455 C.3     1  UNL1        0.0570
      8 C         144.5182  142.2827  162.8176 C.ar    1  UNL1        0.0782
      9 N         144.2970  142.4838  161.3477 N.ar    1  UNL1       -0.1687
     10 N         143.1316  143.4125  161.1770 N.ar    1  UNL1       -0.2168
     11 C         142.4604  143.9668  159.9555 C.ar    1  UNL1        0.0636
     12 C         142.9595  143.5939  158.5910 C.3     1  UNL1        0.0522
     13 C         141.2900  144.8941  160.0984 C.ar    1  UNL1        0.0296
     14 C         140.7909  145.2670  161.4628 C.ar    1  UNL1        0.0622
     15 C         139.6205  146.1944  161.6057 C.3     1  UNL1        0.0522
     16 N         141.4621  144.7128  162.6844 N.ar    1  UNL1       -0.2311
     17 C         142.6324  143.7855  162.5415 C.ar    1  UNL1        0.1604
     18 C         143.4894  143.0872  163.5554 C.ar    1  UNL1        0.0332
     19 C         145.2240  140.0923  164.0233 C.3     1  UNL1        0.0067
     20 C         145.5814  141.4273  163.4403 C.3     1  UNL1        0.0474
     21 C         139.3077  139.7574  167.8770 C.3     1  UNL1        0.0288
     22 C         138.0932  139.2685  167.1449 C.3     1  UNL1        0.0339
     23 C         138.1869  138.0620  166.2585 C.3     1  UNL1        0.1109
     24 O         137.4914  136.7908  166.6461 O.3     1  UNL1       -0.3844
     25 H         137.6523  136.1149  165.9692 H       1  UNL1        0.2103
     26 C         138.9760  138.1269  164.9846 C.3     1  UNL1        0.0297
     27 C         138.5605  139.0668  163.8919 C.3     1  UNL1        0.0195
     28 C         139.3496  139.1316  162.6179 C.3     1  UNL1        0.0686
     29 N         140.5544  138.2565  162.4366 N.3     1  UNL1       -0.2975
     30 C         140.9700  137.3166  163.5292 C.3     1  UNL1        0.0686
     31 C         140.1807  137.2518  164.8032 C.3     1  UNL1        0.0195
     32 H         141.3458  138.8767  162.2650 H       1  UNL1        0.1232
@<TRIPOS>BOND
     1    19    20    1
     2    20     8    1
     3     8     9   ar
     4     9    10   ar
     5    10    11   ar
     6    11    12    1
     7    11    13   ar
     8    13    14   ar
     9    14    15    1
    10    14    16   ar
    11    16    17   ar
    12    17    18   ar
    13    18     7    1
    14     7     1    1
    15     1     2   ar
    16     2     3   ar
    17     3     4   ar
    18     4    21    1
    19    21    22    1
    20    22    23    1
    21    23    24    1
    22    23    26    1
    23    26    27    1
    24    27    28    1
    25    28    29    1
    26    29    30    1
    27    30    31    1
    28     4     5   ar
    29     5     6   ar
    30    18     8   ar
    31     6     1   ar
    32    17    10   ar
    33    31    26    1
    34    24    25    1
    35    29    32    1
@<TRIPOS>MOLECULE
*****
 32 35 0 0 0
SMALL
GASTEIGER

@<TRIPOS>ATOM
      1 C         142.7792  141.5478  165.6497 C.ar    1  UNL1       -0.0177
      2 C         141.6112  142.4091  166.0292 C.ar    1  UNL1       -0.0043
      3 C         140.4513  141.8151  166.7718 C.ar    1  UNL1       -0.0046
      4 C         140.4592  140.3598  167.1351 C.ar    1  UNL1       -0.0221
      5 C         141.6271  139.4984  166.7557 C.ar    1  UNL1       -0.0046
      6 C         142.7871  140.0924  166.0130 C.ar    1  UNL1       -0.0043
      7 C         143.9392  142.1418  164.9070 C.3     1  UNL1        0.0570
      8 C         143.6888  143.7487  162.7856 C.ar    1  UNL1        0.0782
      9 N         143.6172  143.5426  161.3016 N.ar    1  UNL1       -0.1687
     10 N         143.7160  142.0702  161.0327 N.ar    1  UNL1       -0.2168
     11 C         143.7024  141.2796  159.7581 C.ar    1  UNL1        0.0636
     12 C         143.5697  141.9835  158.4402 C.3     1  UNL1        0.0522
     13 C         143.8213  139.7849  159.8014 C.ar    1  UNL1        0.0296
     14 C         143.9540  139.0810  161.1193 C.ar    1  UNL1        0.0622
     15 C         144.0730  137.5863  161.1626 C.3     1  UNL1        0.0522
     16 N         143.9677  139.8716  162.3939 N.ar    1  UNL1       -0.2311
     17 C         143.8487  141.3662  162.3506 C.ar    1  UNL1        0.1604
     18 C         143.8319  142.4036  163.4339 C.ar    1  UNL1        0.0332
     19 C         142.3019  145.6460  163.8931 C.3     1  UNL1        0.0067
     20 C         143.6280  145.0681  163.4966 C.3     1  UNL1        0.0474
     21 C         139.2992  139.7658  167.8778 C.3     1  UNL1        0.0288
     22 C         138.9500  140.2668  169.2479 C.3     1  UNL1        0.0339
     23 C         139.9665  140.2086  170.3493 C.3     1  UNL1        0.1109
     24 O         139.7883  139.2442  171.4843 O.3     1  UNL1       -0.3844
     25 H         140.5283  139.3349  172.1049 H       1  UNL1        0.2103
     26 C         141.1612  141.1150  170.3158 C.3     1  UNL1        0.0297
     27 C         140.9769  142.6019  170.3872 C.3     1  UNL1        0.0195
     28 C         142.1716  143.5082  170.3536 C.3     1  UNL1        0.0686
     29 N         143.5508  142.9276  170.2488 N.3     1  UNL1       -0.2975
     30 C         143.7351  141.4407  170.1775 C.3     1  UNL1        0.0686
     31 C         142.5403  140.5344  170.2110 C.3     1  UNL1        0.0195
     32 H         144.0688  143.2497  171.0664 H       1  UNL1        0.1232
@<TRIPOS>BOND
     1    19    20    1
     2    20     8    1
     3     8     9   ar
     4     9    10   ar
     5    10    11   ar
     6    11    12    1
     7    11    13   ar
     8    13    14   ar
     9    14    15    1
    10    14    16   ar
    11    16    17   ar
    12    17    18   ar
    13    18     7    1
    14     7     1    1
    15     1     2   ar
    16     2     3   ar
    17     3     4   ar
    18     4    21    1
    19    21    22    1
    20    22    23    1
    21    23    24    1
    22    23    26    1
    23    26    27    1
    24    27    28    1
    25    28    29    1
    26    29    30    1
    27    30    31    1
    28     4     5   ar
    29     5     6   ar
    30    18     8   ar
    31     6     1   ar
    32    17    10   ar
    33    31    26    1
    34    24    25    1
    35    29    32    1
@<TRIPOS>MOLECULE
*****
 32 35 0 0 0
SMALL
GASTEIGER

@<TRIPOS>ATOM
      1 C         141.6979  143.1911  164.2677 C.ar    1  UNL1       -0.0177
      2 C         140.7407  143.4856  165.3845 C.ar    1  UNL1       -0.0043
      3 C         140.4347  142.4320  166.4073 C.ar    1  UNL1       -0.0046
      4 C         141.0858  141.0839  166.3134 C.ar    1  UNL1       -0.0221
      5 C         142.0430  140.7895  165.1966 C.ar    1  UNL1       -0.0046
      6 C         142.3490  141.8431  164.1738 C.ar    1  UNL1       -0.0043
      7 C         142.0039  144.2448  163.2448 C.3     1  UNL1        0.0570
      8 C         139.8617  144.6093  161.6882 C.ar    1  UNL1        0.0782
      9 N         139.5762  144.4548  160.2237 N.ar    1  UNL1       -0.1687
     10 N         140.8331  143.9852  159.5533 N.ar    1  UNL1       -0.2168
     11 C         141.1475  143.6636  158.1224 C.ar    1  UNL1        0.0636
     12 C         140.0851  143.7995  157.0722 C.3     1  UNL1        0.0522
     13 C         142.5243  143.2063  157.7415 C.ar    1  UNL1        0.0296
     14 C         143.5868  143.0704  158.7916 C.ar    1  UNL1        0.0622
     15 C         144.9637  142.6130  158.4107 C.3     1  UNL1        0.0522
     16 N         143.2724  143.3920  160.2226 N.ar    1  UNL1       -0.2311
     17 C         141.8956  143.8493  160.6034 C.ar    1  UNL1        0.1604
     18 C         141.2952  144.2350  161.9228 C.ar    1  UNL1        0.0332
     19 C         137.7465  144.1666  163.1304 C.3     1  UNL1        0.0067
     20 C         138.8853  145.0590  162.7343 C.3     1  UNL1        0.0474
     21 C         140.7797  140.0303  167.3362 C.3     1  UNL1        0.0288
     22 C         139.3810  139.8720  167.8546 C.3     1  UNL1        0.0339
     23 C         138.3835  139.0583  167.0846 C.3     1  UNL1        0.1109
     24 O         137.3191  138.2919  167.8124 O.3     1  UNL1       -0.3844
     25 H         136.7621  137.8236  167.1710 H       1  UNL1        0.2103
     26 C         138.4505  139.0110  165.5869 C.3     1  UNL1        0.0297
     27 C         138.0309  140.2033  164.7793 C.3     1  UNL1        0.0195
     28 C         138.0979  140.1560  163.2815 C.3     1  UNL1        0.0686
     29 N         138.5845  138.9163  162.5913 N.3     1  UNL1       -0.2975
     30 C         139.0041  137.7239  163.3989 C.3     1  UNL1        0.0686
     31 C         138.9371  137.7713  164.8967 C.3     1  UNL1        0.0195
     32 H         139.3904  139.1894  162.0289 H       1  UNL1        0.1232
@<TRIPOS>BOND
     1    19    20    1
     2    20     8    1
     3     8     9   ar
     4     9    10   ar
     5    10    11   ar
     6    11    12    1
     7    11    13   ar
     8    13    14   ar
     9    14    15    1
    10    14    16   ar
    11    16    17   ar
    12    17    18   ar
    13    18     7    1
    14     7     1    1
    15     1     2   ar
    16     2     3   ar
    17     3     4   ar
    18     4    21    1
    19    21    22    1
    20    22    23    1
    21    23    24    1
    22    23    26    1
    23    26    27    1
    24    27    28    1
    25    28    29    1
    26    29    30    1
    27    30    31    1
    28     4     5   ar
    29     5     6   ar
    30    18     8   ar
    31     6     1   ar
    32    17    10   ar
    33    31    26    1
    34    24    25    1
    35    29    32    1
@<TRIPOS>MOLECULE
*****
 32 35 0 0 0
SMALL
GASTEIGER

@<TRIPOS>ATOM
      1 C         138.8645  142.8598  163.8910 C.ar    1  UNL1       -0.0177
      2 C         137.8869  141.8788  163.3148 C.ar    1  UNL1       -0.0043
      3 C         137.6412  140.5707  164.0064 C.ar    1  UNL1       -0.0046
      4 C         138.3729  140.2436  165.2743 C.ar    1  UNL1       -0.0221
      5 C         139.3504  141.2246  165.8506 C.ar    1  UNL1       -0.0046
      6 C         139.5962  142.5327  165.1589 C.ar    1  UNL1       -0.0043
      7 C         139.1103  144.1680  163.1994 C.3     1  UNL1        0.0570
      8 C         141.5666  144.7801  162.3408 C.ar    1  UNL1        0.0782
      9 N         142.2787  144.7054  161.0228 N.ar    1  UNL1       -0.1687
     10 N         141.3222  144.1493  160.0099 N.ar    1  UNL1       -0.2168
     11 C         141.4696  143.8531  158.5469 C.ar    1  UNL1        0.0636
     12 C         142.7729  144.1221  157.8548 C.3     1  UNL1        0.0522
     13 C         140.3136  143.2879  157.7760 C.ar    1  UNL1        0.0296
     14 C         139.0103  143.0189  158.4681 C.ar    1  UNL1        0.0622
     15 C         137.8544  142.4537  157.6971 C.3     1  UNL1        0.0522
     16 N         138.8629  143.3151  159.9311 N.ar    1  UNL1       -0.2311
     17 C         140.0188  143.8803  160.7020 C.ar    1  UNL1        0.1604
     18 C         140.1699  144.2702  162.1426 C.ar    1  UNL1        0.0332
     19 C         143.5996  145.0492  163.9359 C.3     1  UNL1        0.0067
     20 C         142.1488  145.2774  163.6306 C.3     1  UNL1        0.0474
     21 C         138.1271  138.9354  165.9659 C.3     1  UNL1        0.0288
     22 C         138.7809  137.6843  165.4587 C.3     1  UNL1        0.0339
     23 C         139.4286  137.6720  164.1058 C.3     1  UNL1        0.1109
     24 O         138.6249  137.3080  162.8927 O.3     1  UNL1       -0.3844
     25 H         139.1906  137.3491  162.1058 H       1  UNL1        0.2103
     26 C         140.8800  138.0239  163.9661 C.3     1  UNL1        0.0297
     27 C         141.6783  138.4089  165.1762 C.3     1  UNL1        0.0195
     28 C         143.1297  138.7608  165.0365 C.3     1  UNL1        0.0686
     29 N         143.7829  138.7276  163.6865 N.3     1  UNL1       -0.2975
     30 C         142.9846  138.3426  162.4763 C.3     1  UNL1        0.0686
     31 C         141.5332  137.9907  162.6162 C.3     1  UNL1        0.0195
     32 H         144.5577  138.0673  163.7504 H       1  UNL1        0.1232
@<TRIPOS>BOND
     1    19    20    1
     2    20     8    1
     3     8     9   ar
     4     9    10   ar
     5    10    11   ar
     6    11    12    1
     7    11    13   ar
     8    13    14   ar
     9    14    15    1
    10    14    16   ar
    11    16    17   ar
    12    17    18   ar
    13    18     7    1
    14     7     1    1
    15     1     2   ar
    16     2     3   ar
    17     3     4   ar
    18     4    21    1
    19    21    22    1
    20    22    23    1
    21    23    24    1
    22    23    26    1
    23    26    27    1
    24    27    28    1
    25    28    29    1
    26    29    30    1
    27    30    31    1
    28     4     5   ar
    29     5     6   ar
    30    18     8   ar
    31     6     1   ar
    32    17    10   ar
    33    31    26    1
    34    24    25    1
    35    29    32    1
@<TRIPOS>MOLECULE
*****
 32 35 0 0 0
SMALL
GASTEIGER

@<TRIPOS>ATOM
      1 C         142.2488  143.8999  164.1980 C.ar    1  UNL1       -0.0177
      2 C         143.6310  143.6072  164.7017 C.ar    1  UNL1       -0.0043
      3 C         143.8291  142.6347  165.8264 C.ar    1  UNL1       -0.0046
      4 C         142.6449  141.9549  166.4473 C.ar    1  UNL1       -0.0221
      5 C         141.2627  142.2476  165.9436 C.ar    1  UNL1       -0.0046
      6 C         141.0646  143.2201  164.8190 C.ar    1  UNL1       -0.0043
      7 C         142.0507  144.8725  163.0732 C.3     1  UNL1        0.0570
      8 C         139.7843  144.5809  161.6863 C.ar    1  UNL1        0.0782
      9 N         139.4339  144.0587  160.3245 N.ar    1  UNL1       -0.1687
     10 N         140.7029  143.6208  159.6553 N.ar    1  UNL1       -0.2168
     11 C         140.9718  143.0255  158.3050 C.ar    1  UNL1        0.0636
     12 C         139.8371  142.7739  157.3568 C.3     1  UNL1        0.0522
     13 C         142.3755  142.6818  157.9030 C.ar    1  UNL1        0.0296
     14 C         143.5102  142.9334  158.8512 C.ar    1  UNL1        0.0622
     15 C         144.9138  142.5896  158.4491 C.3     1  UNL1        0.0522
     16 N         143.2413  143.5286  160.2015 N.ar    1  UNL1       -0.2311
     17 C         141.8376  143.8724  160.6035 C.ar    1  UNL1        0.1604
     18 C         141.2699  144.4657  161.8587 C.ar    1  UNL1        0.0332
     19 C         137.7514  144.2357  163.2669 C.3     1  UNL1        0.0067
     20 C         138.8186  145.1230  162.6980 C.3     1  UNL1        0.0474
     21 C         142.8430  140.9824  167.5720 C.3     1  UNL1        0.0288
     22 C         142.3581  139.5694  167.4361 C.3     1  UNL1        0.0339
     23 C         143.1265  138.5900  166.5994 C.3     1  UNL1        0.1109
     24 O         144.2252  137.7762  167.2164 O.3     1  UNL1       -0.3844
     25 H         144.6163  137.1977  166.5431 H       1  UNL1        0.2103
     26 C         142.7963  138.4244  165.1456 C.3     1  UNL1        0.0297
     27 C         143.6702  139.0538  164.1015 C.3     1  UNL1        0.0195
     28 C         143.3399  138.8882  162.6477 C.3     1  UNL1        0.0686
     29 N         142.1357  138.0930  162.2380 N.3     1  UNL1       -0.2975
     30 C         141.2618  137.4636  163.2821 C.3     1  UNL1        0.0686
     31 C         141.5922  137.6293  164.7359 C.3     1  UNL1        0.0195
     32 H         142.4711  137.3376  161.6403 H       1  UNL1        0.1232
@<TRIPOS>BOND
     1    19    20    1
     2    20     8    1
     3     8     9   ar
     4     9    10   ar
     5    10    11   ar
     6    11    12    1
     7    11    13   ar
     8    13    14   ar
     9    14    15    1
    10    14    16   ar
    11    16    17   ar
    12    17    18   ar
    13    18     7    1
    14     7     1    1
    15     1     2   ar
    16     2     3   ar
    17     3     4   ar
    18     4    21    1
    19    21    22    1
    20    22    23    1
    21    23    24    1
    22    23    26    1
    23    26    27    1
    24    27    28    1
    25    28    29    1
    26    29    30    1
    27    30    31    1
    28     4     5   ar
    29     5     6   ar
    30    18     8   ar
    31     6     1   ar
    32    17    10   ar
    33    31    26    1
    34    24    25    1
    35    29    32    1
@<TRIPOS>MOLECULE
*****
 32 35 0 0 0
SMALL
GASTEIGER

@<TRIPOS>ATOM
      1 C         138.2341  141.0551  164.7209 C.ar    1  UNL1       -0.0177
      2 C         138.1664  139.7362  165.4321 C.ar    1  UNL1       -0.0043
      3 C         139.0522  139.4752  166.6141 C.ar    1  UNL1       -0.0046
      4 C         140.0057  140.5331  167.0849 C.ar    1  UNL1       -0.0221
      5 C         140.0734  141.8521  166.3737 C.ar    1  UNL1       -0.0046
      6 C         139.1876  142.1130  165.1917 C.ar    1  UNL1       -0.0043
      7 C         137.3483  141.3162  163.5387 C.3     1  UNL1        0.0570
      8 C         137.9380  140.2548  161.1574 C.ar    1  UNL1        0.0782
      9 N         138.6268  140.7457  159.9186 N.ar    1  UNL1       -0.1687
     10 N         139.0495  142.1654  160.1550 N.ar    1  UNL1       -0.2168
     11 C         139.7685  143.1561  159.2881 C.ar    1  UNL1        0.0636
     12 C         140.1959  142.7696  157.9032 C.3     1  UNL1        0.0522
     13 C         140.0600  144.5332  159.8060 C.ar    1  UNL1        0.0296
     14 C         139.6325  144.9197  161.1909 C.ar    1  UNL1        0.0622
     15 C         139.9240  146.2970  161.7089 C.3     1  UNL1        0.0522
     16 N         138.9135  143.9290  162.0578 N.ar    1  UNL1       -0.2311
     17 C         138.6220  142.5518  161.5399 C.ar    1  UNL1        0.1604
     18 C         137.9351  141.3710  162.1594 C.ar    1  UNL1        0.0332
     19 C         138.1169  137.8535  162.1332 C.3     1  UNL1        0.0067
     20 C         137.3546  138.8876  161.3589 C.3     1  UNL1        0.0474
     21 C         140.8915  140.2721  168.2669 C.3     1  UNL1        0.0288
     22 C         142.3772  140.1746  168.0840 C.3     1  UNL1        0.0339
     23 C         142.9539  139.1299  167.1752 C.3     1  UNL1        0.1109
     24 O         143.7255  137.9791  167.7498 O.3     1  UNL1       -0.3844
     25 H         144.0263  137.4007  167.0316 H       1  UNL1        0.2103
     26 C         142.7591  139.2361  165.6917 C.3     1  UNL1        0.0297
     27 C         142.1060  138.1151  164.9389 C.3     1  UNL1        0.0195
     28 C         141.9111  138.2213  163.4554 C.3     1  UNL1        0.0686
     29 N         142.3694  139.4486  162.7247 N.3     1  UNL1       -0.2975
     30 C         143.0226  140.5696  163.4775 C.3     1  UNL1        0.0686
     31 C         143.2174  140.4633  164.9610 C.3     1  UNL1        0.0195
     32 H         141.5480  139.8418  162.2652 H       1  UNL1        0.1232
@<TRIPOS>BOND
     1    19    20    1
     2    20     8    1
     3     8     9   ar
     4     9    10   ar
     5    10    11   ar
     6    11    12    1
     7    11    13   ar
     8    13    14   ar
     9    14    15    1
    10    14    16   ar
    11    16    17   ar
    12    17    18   ar
    13    18     7    1
    14     7     1    1
    15     1     2   ar
    16     2     3   ar
    17     3     4   ar
    18     4    21    1
    19    21    22    1
    20    22    23    1
    21    23    24    1
    22    23    26    1
    23    26    27    1
    24    27    28    1
    25    28    29    1
    26    29    30    1
    27    30    31    1
    28     4     5   ar
    29     5     6   ar
    30    18     8   ar
    31     6     1   ar
    32    17    10   ar
    33    31    26    1
    34    24    25    1
    35    29    32    1
@<TRIPOS>MOLECULE
*****
 32 35 0 0 0
SMALL
GASTEIGER

@<TRIPOS>ATOM
      1 C         138.2212  140.0731  162.5994 C.ar    1  UNL1       -0.0177
      2 C         138.3662  140.1425  164.0907 C.ar    1  UNL1       -0.0043
      3 C         138.1827  141.4504  164.8019 C.ar    1  UNL1       -0.0046
      4 C         137.8542  142.6887  164.0218 C.ar    1  UNL1       -0.0221
      5 C         137.7091  142.6193  162.5305 C.ar    1  UNL1       -0.0046
      6 C         137.8927  141.3114  161.8193 C.ar    1  UNL1       -0.0043
      7 C         138.4047  138.7652  161.8881 C.3     1  UNL1        0.0570
      8 C         140.9241  137.9561  161.5096 C.ar    1  UNL1        0.0782
      9 N         141.8577  137.9080  160.3365 N.ar    1  UNL1       -0.1687
     10 N         141.1327  138.4580  159.1441 N.ar    1  UNL1       -0.2168
     11 C         141.5521  138.6557  157.7176 C.ar    1  UNL1        0.0636
     12 C         142.9339  138.2676  157.2815 C.3     1  UNL1        0.0522
     13 C         140.5898  139.2414  156.7272 C.ar    1  UNL1        0.0296
     14 C         139.2081  139.6294  157.1633 C.ar    1  UNL1        0.0622
     15 C         138.2458  140.2151  156.1728 C.3     1  UNL1        0.0522
     16 N         138.7886  139.4318  158.5898 N.ar    1  UNL1       -0.2311
     17 C         139.7509  138.8461  159.5802 C.ar    1  UNL1        0.1604
     18 C         139.6220  138.5359  161.0421 C.ar    1  UNL1        0.0332
     19 C         142.0497  138.3794  163.8125 C.3     1  UNL1        0.0067
     20 C         141.2375  137.5039  162.9050 C.3     1  UNL1        0.0474
     21 C         137.6707  143.9965  164.7331 C.3     1  UNL1        0.0288
     22 C         138.8635  144.8421  165.0681 C.3     1  UNL1        0.0339
     23 C         139.9415  145.0562  164.0473 C.3     1  UNL1        0.1109
     24 O         139.6560  145.8574  162.8118 O.3     1  UNL1       -0.3844
     25 H         140.4539  145.8988  162.2617 H       1  UNL1        0.2103
     26 C         141.3051  144.4692  164.2622 C.3     1  UNL1        0.0297
     27 C         141.4593  143.1950  165.0384 C.3     1  UNL1        0.0195
     28 C         142.8228  142.6080  165.2533 C.3     1  UNL1        0.0686
     29 N         144.0323  143.2953  164.6918 N.3     1  UNL1       -0.2975
     30 C         143.8780  144.5695  163.9155 C.3     1  UNL1        0.0686
     31 C         142.5144  145.1564  163.7008 C.3     1  UNL1        0.0195
     32 H         144.4898  142.6266  164.0722 H       1  UNL1        0.1232
@<TRIPOS>BOND
     1    19    20    1
     2    20     8    1
     3     8     9   ar
     4     9    10   ar
     5    10    11   ar
     6    11    12    1
     7    11    13   ar
     8    13    14   ar
     9    14    15    1
    10    14    16   ar
    11    16    17   ar
    12    17    18   ar
    13    18     7    1
    14     7     1    1
    15     1     2   ar
    16     2     3   ar
    17     3     4   ar
    18     4    21    1
    19    21    22    1
    20    22    23    1
    21    23    24    1
    22    23    26    1
    23    26    27    1
    24    27    28    1
    25    28    29    1
    26    29    30    1
    27    30    31    1
    28     4     5   ar
    29     5     6   ar
    30    18     8   ar
    31     6     1   ar
    32    17    10   ar
    33    31    26    1
    34    24    25    1
    35    29    32    1
@<TRIPOS>MOLECULE
*****
 32 35 0 0 0
SMALL
GASTEIGER

@<TRIPOS>ATOM
      1 C         140.3184  142.1687  165.4974 C.ar    1  UNL1       -0.0177
      2 C         139.6572  141.1624  166.3921 C.ar    1  UNL1       -0.0043
      3 C         140.4914  140.1919  167.1744 C.ar    1  UNL1       -0.0046
      4 C         141.9868  140.2276  167.0622 C.ar    1  UNL1       -0.0221
      5 C         142.6480  141.2338  166.1676 C.ar    1  UNL1       -0.0046
      6 C         141.8138  142.2043  165.3852 C.ar    1  UNL1       -0.0043
      7 C         139.4842  143.1393  164.7150 C.3     1  UNL1        0.0570
      8 C         138.9483  143.8534  162.1955 C.ar    1  UNL1        0.0782
      9 N         138.5974  143.1176  160.9364 N.ar    1  UNL1       -0.1687
     10 N         138.5597  141.6515  161.2514 N.ar    1  UNL1       -0.2168
     11 C         138.2693  140.4496  160.4022 C.ar    1  UNL1        0.0636
     12 C         137.9417  140.6199  158.9483 C.3     1  UNL1        0.0522
     13 C         138.3066  139.0774  161.0069 C.ar    1  UNL1        0.0296
     14 C         138.6343  138.9071  162.4607 C.ar    1  UNL1        0.0622
     15 C         138.6715  137.5349  163.0654 C.3     1  UNL1        0.0522
     16 N         138.9246  140.1090  163.3099 N.ar    1  UNL1       -0.2311
     17 C         138.8873  141.4812  162.7052 C.ar    1  UNL1        0.1604
     18 C         139.1274  142.8420  163.2887 C.ar    1  UNL1        0.0332
     19 C         140.4467  145.9403  162.5818 C.3     1  UNL1        0.0067
     20 C         139.0944  145.3396  162.3367 C.3     1  UNL1        0.0474
     21 C         142.8209  139.2570  167.8446 C.3     1  UNL1        0.0288
     22 C         142.4849  138.9634  169.2767 C.3     1  UNL1        0.0339
     23 C         142.7025  140.0110  170.3280 C.3     1  UNL1        0.1109
     24 O         143.7824  139.8315  171.3535 O.3     1  UNL1       -0.3844
     25 H         143.7882  140.5935  171.9537 H       1  UNL1        0.2103
     26 C         141.8401  141.2380  170.3538 C.3     1  UNL1        0.0297
     27 C         140.3741  141.1183  170.6479 C.3     1  UNL1        0.0195
     28 C         139.5117  142.3453  170.6737 C.3     1  UNL1        0.0686
     29 N         140.1153  143.6921  170.4054 N.3     1  UNL1       -0.2975
     30 C         141.5813  143.8118  170.1114 C.3     1  UNL1        0.0686
     31 C         142.4437  142.5847  170.0856 C.3     1  UNL1        0.0195
     32 H         139.9323  144.2661  171.2285 H       1  UNL1        0.1232
@<TRIPOS>BOND
     1    19    20    1
     2    20     8    1
     3     8     9   ar
     4     9    10   ar
     5    10    11   ar
     6    11    12    1
     7    11    13   ar
     8    13    14   ar
     9    14    15    1
    10    14    16   ar
    11    16    17   ar
    12    17    18   ar
    13    18     7    1
    14     7     1    1
    15     1     2   ar
    16     2     3   ar
    17     3     4   ar
    18     4    21    1
    19    21    22    1
    20    22    23    1
    21    23    24    1
    22    23    26    1
    23    26    27    1
    24    27    28    1
    25    28    29    1
    26    29    30    1
    27    30    31    1
    28     4     5   ar
    29     5     6   ar
    30    18     8   ar
    31     6     1   ar
    32    17    10   ar
    33    31    26    1
    34    24    25    1
    35    29    32    1
@<TRIPOS>MOLECULE
*****
 32 35 0 0 0
SMALL
GASTEIGER

@<TRIPOS>ATOM
      1 C         142.1994  141.1485  164.3656 C.ar    1  UNL1       -0.0177
      2 C         141.8756  140.8147  162.9396 C.ar    1  UNL1       -0.0043
      3 C         141.8188  141.9030  161.9089 C.ar    1  UNL1       -0.0046
      4 C         142.0858  143.3251  162.3042 C.ar    1  UNL1       -0.0221
      5 C         142.4096  143.6589  163.7303 C.ar    1  UNL1       -0.0046
      6 C         142.4664  142.5706  164.7610 C.ar    1  UNL1       -0.0043
      7 C         142.2562  140.0602  165.3964 C.3     1  UNL1        0.0570
      8 C         139.9078  139.0587  166.1882 C.ar    1  UNL1        0.0782
      9 N         139.0587  139.1909  167.4177 N.ar    1  UNL1       -0.1687
     10 N         139.7613  140.1134  168.3693 N.ar    1  UNL1       -0.2168
     11 C         139.3983  140.6112  169.7369 C.ar    1  UNL1        0.0636
     12 C         138.1149  140.1733  170.3782 C.3     1  UNL1        0.0522
     13 C         140.3186  141.5469  170.4631 C.ar    1  UNL1        0.0296
     14 C         141.6019  141.9848  169.8218 C.ar    1  UNL1        0.0622
     15 C         142.5222  142.9205  170.5481 C.3     1  UNL1        0.0522
     16 N         141.9649  141.4870  168.4542 N.ar    1  UNL1       -0.2311
     17 C         141.0446  140.5513  167.7279 C.ar    1  UNL1        0.1604
     18 C         141.1351  139.8995  166.3800 C.ar    1  UNL1        0.0332
     19 C         140.5446  137.1739  164.5173 C.3     1  UNL1        0.0067
     20 C         139.5860  138.2311  164.9793 C.3     1  UNL1        0.0474
     21 C         142.0289  144.4133  161.2735 C.3     1  UNL1        0.0288
     22 C         140.7219  144.7683  160.6287 C.3     1  UNL1        0.0339
     23 C         139.5765  145.2482  161.4700 C.3     1  UNL1        0.1109
     24 O         139.1189  146.6733  161.3714 O.3     1  UNL1       -0.3844
     25 H         138.3750  146.8166  161.9771 H       1  UNL1        0.2103
     26 C         138.8887  144.3029  162.4099 C.3     1  UNL1        0.0297
     27 C         138.2786  143.0364  161.8867 C.3     1  UNL1        0.0195
     28 C         137.5908  142.0912  162.8266 C.3     1  UNL1        0.0686
     29 N         137.5132  142.4124  164.2898 N.3     1  UNL1       -0.2975
     30 C         138.1232  143.6790  164.8130 C.3     1  UNL1        0.0686
     31 C         138.8110  144.6242  163.8730 C.3     1  UNL1        0.0195
     32 H         137.9633  141.6425  164.7847 H       1  UNL1        0.1232
@<TRIPOS>BOND
     1    19    20    1
     2    20     8    1
     3     8     9   ar
     4     9    10   ar
     5    10    11   ar
     6    11    12    1
     7    11    13   ar
     8    13    14   ar
     9    14    15    1
    10    14    16   ar
    11    16    17   ar
    12    17    18   ar
    13    18     7    1
    14     7     1    1
    15     1     2   ar
    16     2     3   ar
    17     3     4   ar
    18     4    21    1
    19    21    22    1
    20    22    23    1
    21    23    24    1
    22    23    26    1
    23    26    27    1
    24    27    28    1
    25    28    29    1
    26    29    30    1
    27    30    31    1
    28     4     5   ar
    29     5     6   ar
    30    18     8   ar
    31     6     1   ar
    32    17    10   ar
    33    31    26    1
    34    24    25    1
    35    29    32    1
