@<TRIPOS>MOLECULE
*****
 29 32 0 0 0
SMALL
GASTEIGER

@<TRIPOS>ATOM
      1 C         138.2613  138.8404  166.5419 C.3     1  UNL1        0.0883
      2 C         139.0143  139.6081  167.5878 C.3     1  UNL1        0.0748
      3 C         140.3252  140.2524  167.2468 C.3     1  UNL1        0.0442
      4 C         141.0781  141.0200  168.2926 C.ar    1  UNL1       -0.0100
      5 C         142.3891  141.6644  167.9516 C.ar    1  UNL1        0.0537
      6 CL        142.9471  141.5410  166.5648 Cl      1  UNL1       -0.0826
      7 C         143.1419  142.4321  168.9975 C.ar    1  UNL1        0.0142
      8 C         142.5839  142.5554  170.3843 C.ar    1  UNL1        0.0372
      9 C         141.2729  141.9112  170.7253 C.ar    1  UNL1        0.1307
     10 O         140.7149  142.0346  172.1121 O.3     1  UNL1       -0.5058
     11 C         140.5200  141.1434  169.6794 C.ar    1  UNL1        0.0242
     12 C         139.2091  140.4992  170.0204 C.3     1  UNL1        0.0984
     13 N         138.4562  139.7315  168.9746 N.3     1  UNL1       -0.2934
     14 H         141.1852  142.5141  172.7655 H       1  UNL1        0.2922
     15 H         137.5417  140.1743  168.8857 H       1  UNL1        0.1236
     16 C         139.8952  138.5388  162.3599 C.3     1  UNL1        0.0248
     17 C         140.1145  137.4188  163.3333 C.3     1  UNL1        0.0217
     18 C         139.5699  137.5193  164.7273 C.3     1  UNL1        0.0725
     19 N         138.8060  138.7398  165.1479 N.3     1  UNL1       -0.2715
     20 C         138.5867  139.8598  164.1745 C.3     1  UNL1        0.0725
     21 C         139.1314  139.7592  162.7804 C.3     1  UNL1        0.0217
     22 C         142.8467  138.2280  161.9213 C.3     1  UNL1        0.0308
     23 C         141.9156  138.2829  160.7466 C.ar    1  UNL1       -0.0236
     24 C         142.4602  138.1823  159.3526 C.ar    1  UNL1        0.0251
     25 C         141.5291  138.2372  158.1778 C.ar    1  UNL1        0.1398
     26 F         142.0738  138.1367  156.7839 F       1  UNL1       -0.2042
     27 C         140.0534  138.3926  158.3971 C.ar    1  UNL1        0.0293
     28 C         139.5088  138.4931  159.7911 C.ar    1  UNL1       -0.0023
     29 C         140.4398  138.4383  160.9659 C.ar    1  UNL1       -0.0262
@<TRIPOS>BOND
     1    22    23    1
     2    23    24   ar
     3    24    25   ar
     4    25    26    1
     5    25    27   ar
     6    27    28   ar
     7    28    29   ar
     8    29    16    1
     9    16    17    1
    10    17    18    1
    11    18    19    1
    12    19     1    1
    13     1     2    1
    14     2     3    1
    15     3     4    1
    16     4     5   ar
    17     5     6    1
    18     5     7   ar
    19     7     8   ar
    20     8     9   ar
    21     9    10    1
    22     9    11   ar
    23    11    12    1
    24    12    13    1
    25    19    20    1
    26    20    21    1
    27    29    23   ar
    28    21    16    1
    29    13     2    1
    30    11     4   ar
    31    10    14    1
    32    13    15    1
@<TRIPOS>MOLECULE
*****
 29 32 0 0 0
SMALL
GASTEIGER

@<TRIPOS>ATOM
      1 C         143.6515  138.4025  166.2951 C.3     1  UNL1        0.0883
      2 C         142.9564  139.1215  167.4132 C.3     1  UNL1        0.0748
      3 C         142.2433  140.4137  167.1452 C.3     1  UNL1        0.0442
      4 C         141.5483  141.1326  168.2632 C.ar    1  UNL1       -0.0100
      5 C         140.8352  142.4248  167.9952 C.ar    1  UNL1        0.0537
      6 CL        140.8171  142.9980  166.6091 Cl      1  UNL1       -0.0826
      7 C         140.1401  143.1437  169.1132 C.ar    1  UNL1        0.0142
      8 C         140.1582  142.5705  170.4993 C.ar    1  UNL1        0.0372
      9 C         140.8713  141.2784  170.7673 C.ar    1  UNL1        0.1307
     10 O         140.8894  140.7052  172.1534 O.3     1  UNL1       -0.5058
     11 C         141.5664  140.5594  169.6492 C.ar    1  UNL1        0.0242
     12 C         142.2795  139.2673  169.9173 C.3     1  UNL1        0.0984
     13 N         142.9745  138.5484  168.7992 N.3     1  UNL1       -0.2934
     14 H         140.4552  141.1544  172.8518 H       1  UNL1        0.2922
     15 H         142.5546  137.6207  168.7397 H       1  UNL1        0.1236
     16 C         143.6402  140.1474  162.1472 C.3     1  UNL1        0.0248
     17 C         144.8349  140.3320  163.0353 C.3     1  UNL1        0.0217
     18 C         144.8387  139.7504  164.4179 C.3     1  UNL1        0.0725
     19 N         143.6477  138.9841  164.9125 N.3     1  UNL1       -0.2715
     20 C         142.4530  138.7996  164.0245 C.3     1  UNL1        0.0725
     21 C         142.4493  139.3812  162.6418 C.3     1  UNL1        0.0217
     22 C         143.1353  143.0784  161.7543 C.3     1  UNL1        0.0308
     23 C         143.3840  142.1946  160.5681 C.ar    1  UNL1       -0.0236
     24 C         143.3802  142.7762  159.1855 C.ar    1  UNL1        0.0251
     25 C         143.6289  141.8923  157.9993 C.ar    1  UNL1        0.1398
     26 F         143.6252  142.4740  156.6167 F       1  UNL1       -0.2042
     27 C         143.8814  140.4269  158.1958 C.ar    1  UNL1        0.0293
     28 C         143.8852  139.8452  159.5785 C.ar    1  UNL1       -0.0023
     29 C         143.6365  140.7290  160.7646 C.ar    1  UNL1       -0.0262
@<TRIPOS>BOND
     1    22    23    1
     2    23    24   ar
     3    24    25   ar
     4    25    26    1
     5    25    27   ar
     6    27    28   ar
     7    28    29   ar
     8    29    16    1
     9    16    17    1
    10    17    18    1
    11    18    19    1
    12    19     1    1
    13     1     2    1
    14     2     3    1
    15     3     4    1
    16     4     5   ar
    17     5     6    1
    18     5     7   ar
    19     7     8   ar
    20     8     9   ar
    21     9    10    1
    22     9    11   ar
    23    11    12    1
    24    12    13    1
    25    19    20    1
    26    20    21    1
    27    29    23   ar
    28    21    16    1
    29    13     2    1
    30    11     4   ar
    31    10    14    1
    32    13    15    1
@<TRIPOS>MOLECULE
*****
 29 32 0 0 0
SMALL
GASTEIGER

@<TRIPOS>ATOM
      1 C         143.6471  138.2987  166.5820 C.3     1  UNL1        0.0883
      2 C         142.9341  139.1477  167.5925 C.3     1  UNL1        0.0748
      3 C         142.2661  140.4208  167.1649 C.3     1  UNL1        0.0442
      4 C         141.5531  141.2697  168.1753 C.ar    1  UNL1       -0.0100
      5 C         140.8852  142.5429  167.7478 C.ar    1  UNL1        0.0537
      6 CL        140.9302  142.9672  166.3097 Cl      1  UNL1       -0.0826
      7 C         140.1722  143.3918  168.7582 C.ar    1  UNL1        0.0142
      8 C         140.1271  142.9675  170.1962 C.ar    1  UNL1        0.0372
      9 C         140.7951  141.6943  170.6238 C.ar    1  UNL1        0.1307
     10 O         140.7500  141.2700  172.0619 O.3     1  UNL1       -0.5058
     11 C         141.5081  140.8454  169.6134 C.ar    1  UNL1        0.0242
     12 C         142.1760  139.5722  170.0409 C.3     1  UNL1        0.0984
     13 N         142.8890  138.7234  169.0305 N.3     1  UNL1       -0.2934
     14 H         140.3046  141.8003  172.6931 H       1  UNL1        0.2922
     15 H         142.4463  137.8047  169.0527 H       1  UNL1        0.1236
     16 C         142.6058  138.6431  162.2177 C.3     1  UNL1        0.0248
     17 C         141.6973  137.8964  163.1489 C.3     1  UNL1        0.0217
     18 C         142.0444  137.7816  164.6036 C.3     1  UNL1        0.0725
     19 N         143.3000  138.4135  165.1272 N.3     1  UNL1       -0.2715
     20 C         144.2085  139.1603  164.1961 C.3     1  UNL1        0.0725
     21 C         143.8614  139.2750  162.7413 C.3     1  UNL1        0.0217
     22 C         140.7996  140.8455  161.2758 C.3     1  UNL1        0.0308
     23 C         141.3556  139.8591  160.2920 C.ar    1  UNL1       -0.0236
     24 C         141.0085  139.9739  158.8372 C.ar    1  UNL1        0.0251
     25 C         141.5645  138.9876  157.8534 C.ar    1  UNL1        0.1398
     26 F         141.2174  139.1024  156.3987 F       1  UNL1       -0.2042
     27 C         142.4676  137.8864  158.3243 C.ar    1  UNL1        0.0293
     28 C         142.8147  137.7715  159.7791 C.ar    1  UNL1       -0.0023
     29 C         142.2587  138.7579  160.7630 C.ar    1  UNL1       -0.0262
@<TRIPOS>BOND
     1    22    23    1
     2    23    24   ar
     3    24    25   ar
     4    25    26    1
     5    25    27   ar
     6    27    28   ar
     7    28    29   ar
     8    29    16    1
     9    16    17    1
    10    17    18    1
    11    18    19    1
    12    19     1    1
    13     1     2    1
    14     2     3    1
    15     3     4    1
    16     4     5   ar
    17     5     6    1
    18     5     7   ar
    19     7     8   ar
    20     8     9   ar
    21     9    10    1
    22     9    11   ar
    23    11    12    1
    24    12    13    1
    25    19    20    1
    26    20    21    1
    27    29    23   ar
    28    21    16    1
    29    13     2    1
    30    11     4   ar
    31    10    14    1
    32    13    15    1
@<TRIPOS>MOLECULE
*****
 29 32 0 0 0
SMALL
GASTEIGER

@<TRIPOS>ATOM
      1 C         141.1935  145.4687  162.4957 C.3     1  UNL1        0.0883
      2 C         140.8710  144.9005  161.1454 C.3     1  UNL1        0.0748
      3 C         139.9413  143.7293  161.0271 C.3     1  UNL1        0.0442
      4 C         139.6189  143.1611  159.6769 C.ar    1  UNL1       -0.0100
      5 C         138.6892  141.9899  159.5585 C.ar    1  UNL1        0.0537
      6 CL        138.0819  141.3869  160.7905 Cl      1  UNL1       -0.0826
      7 C         138.3667  141.4218  158.2083 C.ar    1  UNL1        0.0142
      8 C         138.9739  142.0248  156.9764 C.ar    1  UNL1        0.0372
      9 C         139.9036  143.1960  157.0947 C.ar    1  UNL1        0.1307
     10 O         140.5108  143.7990  155.8627 O.3     1  UNL1       -0.5058
     11 C         140.2261  143.7642  158.4450 C.ar    1  UNL1        0.0242
     12 C         141.1558  144.9353  158.5633 C.3     1  UNL1        0.0984
     13 N         141.4782  145.5035  159.9135 N.3     1  UNL1       -0.2934
     14 H         140.3094  143.4441  155.0193 H       1  UNL1        0.2922
     15 H         141.1960  146.4835  159.8956 H       1  UNL1        0.1236
     16 C         140.4951  143.0075  166.1977 C.3     1  UNL1        0.0248
     17 C         141.7972  142.9009  165.4608 C.3     1  UNL1        0.0217
     18 C         142.0301  143.7212  164.2268 C.3     1  UNL1        0.0725
     19 N         140.9607  144.6483  163.7297 N.3     1  UNL1       -0.2715
     20 C         139.6586  144.7550  164.4666 C.3     1  UNL1        0.0725
     21 C         139.4258  143.9346  165.7007 C.3     1  UNL1        0.0217
     22 C         139.5585  140.1677  165.9564 C.3     1  UNL1        0.0308
     23 C         139.7940  140.7672  167.3111 C.ar    1  UNL1       -0.0236
     24 C         139.5612  139.9469  168.5451 C.ar    1  UNL1        0.0251
     25 C         139.7966  140.5464  169.8998 C.ar    1  UNL1        0.1398
     26 F         139.5638  139.7261  171.1337 F       1  UNL1       -0.2042
     27 C         140.2649  141.9663  170.0204 C.ar    1  UNL1        0.0293
     28 C         140.4977  142.7867  168.7864 C.ar    1  UNL1       -0.0023
     29 C         140.2623  142.1872  167.4317 C.ar    1  UNL1       -0.0262
@<TRIPOS>BOND
     1    22    23    1
     2    23    24   ar
     3    24    25   ar
     4    25    26    1
     5    25    27   ar
     6    27    28   ar
     7    28    29   ar
     8    29    16    1
     9    16    17    1
    10    17    18    1
    11    18    19    1
    12    19     1    1
    13     1     2    1
    14     2     3    1
    15     3     4    1
    16     4     5   ar
    17     5     6    1
    18     5     7   ar
    19     7     8   ar
    20     8     9   ar
    21     9    10    1
    22     9    11   ar
    23    11    12    1
    24    12    13    1
    25    19    20    1
    26    20    21    1
    27    29    23   ar
    28    21    16    1
    29    13     2    1
    30    11     4   ar
    31    10    14    1
    32    13    15    1
@<TRIPOS>MOLECULE
*****
 29 32 0 0 0
SMALL
GASTEIGER

@<TRIPOS>ATOM
      1 C         140.8346  137.1303  163.1364 C.3     1  UNL1        0.0883
      2 C         141.2542  137.6939  161.8111 C.3     1  UNL1        0.0748
      3 C         140.2630  138.4351  160.9637 C.3     1  UNL1        0.0442
      4 C         140.6826  138.9987  159.6385 C.ar    1  UNL1       -0.0100
      5 C         139.6914  139.7399  158.7909 C.ar    1  UNL1        0.0537
      6 CL        138.2806  139.9174  159.2687 Cl      1  UNL1       -0.0826
      7 C         140.1110  140.3035  157.4657 C.ar    1  UNL1        0.0142
      8 C         141.5217  140.1260  156.9880 C.ar    1  UNL1        0.0372
      9 C         142.5129  139.3849  157.8355 C.ar    1  UNL1        0.1307
     10 O         143.9237  139.2074  157.3577 O.3     1  UNL1       -0.5058
     11 C         142.0933  138.8212  159.1607 C.ar    1  UNL1        0.0242
     12 C         143.0845  138.0801  160.0082 C.3     1  UNL1        0.0984
     13 N         142.6649  137.5165  161.3334 N.3     1  UNL1       -0.2934
     14 H         144.1858  139.5595  156.5299 H       1  UNL1        0.2922
     15 H         143.2697  137.9389  162.0378 H       1  UNL1        0.1236
     16 C         140.2707  139.8629  166.6669 C.3     1  UNL1        0.0248
     17 C         139.1133  139.5565  165.7633 C.3     1  UNL1        0.0217
     18 C         139.3013  138.6456  164.5865 C.3     1  UNL1        0.0725
     19 N         140.6466  138.0411  164.3133 N.3     1  UNL1       -0.2715
     20 C         141.8040  138.3475  165.2169 C.3     1  UNL1        0.0725
     21 C         141.6160  139.2584  166.3938 C.3     1  UNL1        0.0217
     22 C         141.1796  142.7178  166.5142 C.3     1  UNL1        0.0308
     23 C         140.5372  142.2013  167.7674 C.ar    1  UNL1       -0.0236
     24 C         140.3493  143.1122  168.9442 C.ar    1  UNL1        0.0251
     25 C         139.7068  142.5956  170.1974 C.ar    1  UNL1        0.1398
     26 F         139.5189  143.5065  171.3742 F       1  UNL1       -0.2042
     27 C         139.2524  141.1682  170.2738 C.ar    1  UNL1        0.0293
     28 C         139.4403  140.2572  169.0969 C.ar    1  UNL1       -0.0023
     29 C         140.0827  140.7738  167.8438 C.ar    1  UNL1       -0.0262
@<TRIPOS>BOND
     1    22    23    1
     2    23    24   ar
     3    24    25   ar
     4    25    26    1
     5    25    27   ar
     6    27    28   ar
     7    28    29   ar
     8    29    16    1
     9    16    17    1
    10    17    18    1
    11    18    19    1
    12    19     1    1
    13     1     2    1
    14     2     3    1
    15     3     4    1
    16     4     5   ar
    17     5     6    1
    18     5     7   ar
    19     7     8   ar
    20     8     9   ar
    21     9    10    1
    22     9    11   ar
    23    11    12    1
    24    12    13    1
    25    19    20    1
    26    20    21    1
    27    29    23   ar
    28    21    16    1
    29    13     2    1
    30    11     4   ar
    31    10    14    1
    32    13    15    1
@<TRIPOS>MOLECULE
*****
 29 32 0 0 0
SMALL
GASTEIGER

@<TRIPOS>ATOM
      1 C         138.7302  137.6602  163.3518 C.3     1  UNL1        0.0883
      2 C         138.6901  138.3506  162.0207 C.3     1  UNL1        0.0748
      3 C         139.8535  138.2359  161.0809 C.3     1  UNL1        0.0442
      4 C         139.8133  138.9263  159.7499 C.ar    1  UNL1       -0.0100
      5 C         140.9768  138.8115  158.8100 C.ar    1  UNL1        0.0537
      6 CL        142.1804  138.0063  159.2012 Cl      1  UNL1       -0.0826
      7 C         140.9366  139.5019  157.4790 C.ar    1  UNL1        0.0142
      8 C         139.7330  140.3071  157.0878 C.ar    1  UNL1        0.0372
      9 C         138.5696  140.4219  158.0276 C.ar    1  UNL1        0.1307
     10 O         137.3660  141.2271  157.6364 O.3     1  UNL1       -0.5058
     11 C         138.6097  139.7315  159.3587 C.ar    1  UNL1        0.0242
     12 C         137.4463  139.8462  160.2985 C.3     1  UNL1        0.0984
     13 N         137.4865  139.1558  161.6295 N.3     1  UNL1       -0.2934
     14 H         137.3409  141.6584  156.8049 H       1  UNL1        0.2922
     15 H         136.6871  138.5229  161.6571 H       1  UNL1        0.1236
     16 C         140.3129  139.8276  166.9639 C.3     1  UNL1        0.0248
     17 C         141.2419  139.4528  165.8474 C.3     1  UNL1        0.0217
     18 C         140.7143  138.7304  164.6434 C.3     1  UNL1        0.0725
     19 N         139.2578  138.3826  164.5558 N.3     1  UNL1       -0.2715
     20 C         138.3288  138.7574  165.6724 C.3     1  UNL1        0.0725
     21 C         138.8565  139.4799  166.8764 C.3     1  UNL1        0.0217
     22 C         140.4765  142.8232  166.9635 C.3     1  UNL1        0.0308
     23 C         140.9223  142.0479  168.1678 C.ar    1  UNL1       -0.0236
     24 C         141.4498  142.7703  169.3718 C.ar    1  UNL1        0.0251
     25 C         141.8956  141.9950  170.5760 C.ar    1  UNL1        0.1398
     26 F         142.4231  142.7175  171.7800 F       1  UNL1       -0.2042
     27 C         141.8138  140.4973  170.5763 C.ar    1  UNL1        0.0293
     28 C         141.2863  139.7748  169.3722 C.ar    1  UNL1       -0.0023
     29 C         140.8405  140.5500  168.1679 C.ar    1  UNL1       -0.0262
@<TRIPOS>BOND
     1    22    23    1
     2    23    24   ar
     3    24    25   ar
     4    25    26    1
     5    25    27   ar
     6    27    28   ar
     7    28    29   ar
     8    29    16    1
     9    16    17    1
    10    17    18    1
    11    18    19    1
    12    19     1    1
    13     1     2    1
    14     2     3    1
    15     3     4    1
    16     4     5   ar
    17     5     6    1
    18     5     7   ar
    19     7     8   ar
    20     8     9   ar
    21     9    10    1
    22     9    11   ar
    23    11    12    1
    24    12    13    1
    25    19    20    1
    26    20    21    1
    27    29    23   ar
    28    21    16    1
    29    13     2    1
    30    11     4   ar
    31    10    14    1
    32    13    15    1
@<TRIPOS>MOLECULE
*****
 29 32 0 0 0
SMALL
GASTEIGER

@<TRIPOS>ATOM
      1 C         138.9605  139.6357  165.3608 C.3     1  UNL1        0.0883
      2 C         139.5352  140.0174  166.6928 C.3     1  UNL1        0.0748
      3 C         140.8001  140.8206  166.7615 C.3     1  UNL1        0.0442
      4 C         141.3747  141.2023  168.0934 C.ar    1  UNL1       -0.0100
      5 C         142.6397  142.0055  168.1622 C.ar    1  UNL1        0.0537
      6 CL        143.3300  142.4271  166.8990 Cl      1  UNL1       -0.0826
      7 C         143.2143  142.3872  169.4941 C.ar    1  UNL1        0.0142
      8 C         142.5240  141.9656  170.7574 C.ar    1  UNL1        0.0372
      9 C         141.2590  141.1624  170.6887 C.ar    1  UNL1        0.1307
     10 O         140.5687  140.7409  171.9519 O.3     1  UNL1       -0.5058
     11 C         140.6844  140.7807  169.3567 C.ar    1  UNL1        0.0242
     12 C         139.4194  139.9775  169.2880 C.3     1  UNL1        0.0984
     13 N         138.8448  139.5958  167.9560 N.3     1  UNL1       -0.2934
     14 H         140.9277  140.9793  172.7839 H       1  UNL1        0.2922
     15 H         137.9022  139.9837  167.9200 H       1  UNL1        0.1236
     16 C         139.5868  142.3042  161.7919 C.3     1  UNL1        0.0248
     17 C         140.5260  141.1633  162.0494 C.3     1  UNL1        0.0217
     18 C         140.3172  140.2738  163.2390 C.3     1  UNL1        0.0725
     19 N         139.1692  140.5252  164.1712 N.3     1  UNL1       -0.2715
     20 C         138.2301  141.6661  163.9138 C.3     1  UNL1        0.0725
     21 C         138.4389  142.5556  162.7241 C.3     1  UNL1        0.0217
     22 C         141.1588  144.8436  162.0753 C.3     1  UNL1        0.0308
     23 C         140.5816  144.4634  160.7440 C.ar    1  UNL1       -0.0236
     24 C         140.7903  145.3529  159.5544 C.ar    1  UNL1        0.0251
     25 C         140.2131  144.9727  158.2231 C.ar    1  UNL1        0.1398
     26 F         140.4219  145.8622  157.0335 F       1  UNL1       -0.2042
     27 C         139.4272  143.7030  158.0814 C.ar    1  UNL1        0.0293
     28 C         139.2184  142.8135  159.2711 C.ar    1  UNL1       -0.0023
     29 C         139.7956  143.1937  160.6023 C.ar    1  UNL1       -0.0262
@<TRIPOS>BOND
     1    22    23    1
     2    23    24   ar
     3    24    25   ar
     4    25    26    1
     5    25    27   ar
     6    27    28   ar
     7    28    29   ar
     8    29    16    1
     9    16    17    1
    10    17    18    1
    11    18    19    1
    12    19     1    1
    13     1     2    1
    14     2     3    1
    15     3     4    1
    16     4     5   ar
    17     5     6    1
    18     5     7   ar
    19     7     8   ar
    20     8     9   ar
    21     9    10    1
    22     9    11   ar
    23    11    12    1
    24    12    13    1
    25    19    20    1
    26    20    21    1
    27    29    23   ar
    28    21    16    1
    29    13     2    1
    30    11     4   ar
    31    10    14    1
    32    13    15    1
@<TRIPOS>MOLECULE
*****
 29 32 0 0 0
SMALL
GASTEIGER

@<TRIPOS>ATOM
      1 C         137.3562  142.1858  163.3469 C.3     1  UNL1        0.0883
      2 C         137.7227  141.8049  161.9431 C.3     1  UNL1        0.0748
      3 C         138.5009  142.7587  161.0861 C.3     1  UNL1        0.0442
      4 C         138.8674  142.3777  159.6823 C.ar    1  UNL1       -0.0100
      5 C         139.6457  143.3316  158.8252 C.ar    1  UNL1        0.0537
      6 CL        140.0574  144.6663  159.3719 Cl      1  UNL1       -0.0826
      7 C         140.0121  142.9507  157.4215 C.ar    1  UNL1        0.0142
      8 C         139.6004  141.6159  156.8747 C.ar    1  UNL1        0.0372
      9 C         138.8221  140.6621  157.7318 C.ar    1  UNL1        0.1307
     10 O         138.4104  139.3273  157.1851 O.3     1  UNL1       -0.5058
     11 C         138.4556  141.0430  159.1356 C.ar    1  UNL1        0.0242
     12 C         137.6774  140.0892  159.9927 C.3     1  UNL1        0.0984
     13 N         137.3110  140.4701  161.3964 N.3     1  UNL1       -0.2934
     14 H         138.6393  139.0894  156.3082 H       1  UNL1        0.2922
     15 H         137.7173  139.7630  162.0090 H       1  UNL1        0.1236
     16 C         139.9815  140.9270  166.7781 C.3     1  UNL1        0.0248
     17 C         138.9728  139.9701  166.2153 C.3     1  UNL1        0.0217
     18 C         138.0977  140.3897  165.0716 C.3     1  UNL1        0.0725
     19 N         138.2313  141.7662  164.4906 N.3     1  UNL1       -0.2715
     20 C         139.2400  142.7231  165.0535 C.3     1  UNL1        0.0725
     21 C         140.1152  142.3035  166.1973 C.3     1  UNL1        0.0217
     22 C         142.4542  139.3092  166.2599 C.3     1  UNL1        0.0308
     23 C         142.0930  139.6985  167.6627 C.ar    1  UNL1       -0.0236
     24 C         142.9681  139.2789  168.8065 C.ar    1  UNL1        0.0251
     25 C         142.6069  139.6682  170.2093 C.ar    1  UNL1        0.1398
     26 F         143.4820  139.2487  171.3530 F       1  UNL1       -0.2042
     27 C         141.3706  140.4771  170.4684 C.ar    1  UNL1        0.0293
     28 C         140.4954  140.8967  169.3247 C.ar    1  UNL1       -0.0023
     29 C         140.8566  140.5074  167.9218 C.ar    1  UNL1       -0.0262
@<TRIPOS>BOND
     1    22    23    1
     2    23    24   ar
     3    24    25   ar
     4    25    26    1
     5    25    27   ar
     6    27    28   ar
     7    28    29   ar
     8    29    16    1
     9    16    17    1
    10    17    18    1
    11    18    19    1
    12    19     1    1
    13     1     2    1
    14     2     3    1
    15     3     4    1
    16     4     5   ar
    17     5     6    1
    18     5     7   ar
    19     7     8   ar
    20     8     9   ar
    21     9    10    1
    22     9    11   ar
    23    11    12    1
    24    12    13    1
    25    19    20    1
    26    20    21    1
    27    29    23   ar
    28    21    16    1
    29    13     2    1
    30    11     4   ar
    31    10    14    1
    32    13    15    1
@<TRIPOS>MOLECULE
*****
 29 32 0 0 0
SMALL
GASTEIGER

@<TRIPOS>ATOM
      1 C         139.1038  141.3556  160.7956 C.3     1  UNL1        0.0883
      2 C         139.6925  142.4432  159.9466 C.3     1  UNL1        0.0748
      3 C         139.0641  142.7896  158.6294 C.3     1  UNL1        0.0442
      4 C         139.6529  143.8771  157.7806 C.ar    1  UNL1       -0.0100
      5 C         139.0245  144.2236  156.4633 C.ar    1  UNL1        0.0537
      6 CL        137.8073  143.4825  155.9950 Cl      1  UNL1       -0.0826
      7 C         139.6133  145.3111  155.6144 C.ar    1  UNL1        0.0142
      8 C         140.8305  146.0521  156.0827 C.ar    1  UNL1        0.0372
      9 C         141.4589  145.7057  157.3999 C.ar    1  UNL1        0.1307
     10 O         142.6761  146.4467  157.8682 O.3     1  UNL1       -0.5058
     11 C         140.8701  144.6181  158.2489 C.ar    1  UNL1        0.0242
     12 C         141.4985  144.2717  159.5660 C.3     1  UNL1        0.0984
     13 N         140.9097  143.1842  160.4149 N.3     1  UNL1       -0.2934
     14 H         143.0439  147.1261  157.3379 H       1  UNL1        0.2922
     15 H         140.6699  143.6077  161.3113 H       1  UNL1        0.1236
     16 C         139.6989  141.4117  165.2557 C.3     1  UNL1        0.0248
     17 C         138.5340  142.1331  164.6454 C.3     1  UNL1        0.0217
     18 C         138.3356  142.1145  163.1587 C.3     1  UNL1        0.0725
     19 N         139.3021  141.3743  162.2823 N.3     1  UNL1       -0.2715
     20 C         140.4670  140.6528  162.8926 C.3     1  UNL1        0.0725
     21 C         140.6654  140.6715  164.3794 C.3     1  UNL1        0.0217
     22 C         138.6840  139.1408  166.9330 C.3     1  UNL1        0.0308
     23 C         139.3898  140.2949  167.5811 C.ar    1  UNL1       -0.0236
     24 C         139.5882  140.3136  169.0678 C.ar    1  UNL1        0.0251
     25 C         140.2940  141.4676  169.7158 C.ar    1  UNL1        0.1398
     26 F         140.4924  141.4863  171.2025 F       1  UNL1       -0.2042
     27 C         140.8014  142.6030  168.8772 C.ar    1  UNL1        0.0293
     28 C         140.6030  142.5844  167.3904 C.ar    1  UNL1       -0.0023
     29 C         139.8972  141.4303  166.7424 C.ar    1  UNL1       -0.0262
@<TRIPOS>BOND
     1    22    23    1
     2    23    24   ar
     3    24    25   ar
     4    25    26    1
     5    25    27   ar
     6    27    28   ar
     7    28    29   ar
     8    29    16    1
     9    16    17    1
    10    17    18    1
    11    18    19    1
    12    19     1    1
    13     1     2    1
    14     2     3    1
    15     3     4    1
    16     4     5   ar
    17     5     6    1
    18     5     7   ar
    19     7     8   ar
    20     8     9   ar
    21     9    10    1
    22     9    11   ar
    23    11    12    1
    24    12    13    1
    25    19    20    1
    26    20    21    1
    27    29    23   ar
    28    21    16    1
    29    13     2    1
    30    11     4   ar
    31    10    14    1
    32    13    15    1
