@<TRIPOS>MOLECULE
*****
 62 68 0 0 0
SMALL
GASTEIGER

@<TRIPOS>ATOM
      1 C         142.2897  141.4830  153.9537 C.ar    1  UNL1        0.0000
      2 C         143.0570  140.4908  154.7764 C.ar    1  UNL1        0.0000
      3 C         144.5562  140.4771  154.7293 C.ar    1  UNL1        0.0005
      4 C         145.2882  141.4556  153.8595 C.ar    1  UNL1        0.0059
      5 C         144.5209  142.4479  153.0368 C.ar    1  UNL1        0.0005
      6 C         143.0217  142.4616  153.0839 C.ar    1  UNL1        0.0000
      7 C         146.7874  141.4420  153.8123 C.2     1  UNL1        0.0330
      8 C         147.7061  141.3736  154.9960 C.2     1  UNL1        0.0537
      9 C         149.1176  141.3837  154.4884 C.2     1  UNL1        0.2309
     10 N         150.5577  141.3476  154.9063 N.2     1  UNL1       -0.0364
     11 C         151.4015  141.4000  153.6671 C.2     1  UNL1        0.3653
     12 N         150.4826  141.4685  152.4834 N.2     1  UNL1       -0.0462
     13 C         149.0712  141.4584  152.9910 C.3     1  UNL1        0.3308
     14 S         147.6310  141.4944  152.5731 S.3     1  UNL1       -0.0538
     15 C         152.9006  141.3864  153.6200 C.3     1  UNL1        0.1874
     16 C         153.7615  140.2041  153.2865 C.3     1  UNL1        0.0344
     17 C         155.1951  140.6397  153.3584 C.3     1  UNL1        0.0221
     18 C         156.3932  139.7755  153.0982 C.3     1  UNL1        0.0018
     19 C         155.2202  142.0911  153.7363 C.3     1  UNL1        0.0940
     20 N         153.8022  142.5526  153.8979 N.am    1  UNL1       -0.2691
     21 C         153.3627  143.9371  154.2718 C.2     1  UNL1        0.2440
     22 O         151.9015  144.2523  154.3966 O.2     1  UNL1       -0.2731
     23 C         154.3845  145.0066  154.5211 C.3     1  UNL1        0.1512
     24 N         154.6027  145.5261  155.9112 N.am    1  UNL1       -0.2640
     25 C         155.5035  144.7864  156.8555 C.2     1  UNL1        0.4021
     26 O         156.1861  143.5273  156.4096 O.2     1  UNL1       -0.2264
     27 H         154.1548  146.3525  156.2039 H       1  UNL1        0.1532
     28 O         155.7217  145.3060  158.2457 O.3     1  UNL1       -0.4306
     29 C         154.5591  145.8086  159.0495 C.3     1  UNL1        0.2573
     30 C         155.1882  145.5567  153.3801 C.3     1  UNL1        0.0270
     31 C         156.4740  146.2808  153.6488 C.3     1  UNL1        0.0022
     32 C         154.7059  145.3825  151.9704 C.3     1  UNL1        0.0022
     33 C         137.7922  141.5240  154.0950 C.ar    1  UNL1        0.0172
     34 C         138.5715  140.8803  155.2034 C.ar    1  UNL1        0.0015
     35 C         140.0707  140.8666  155.1562 C.ar    1  UNL1        0.0000
     36 C         140.7905  141.4967  154.0008 C.ar    1  UNL1        0.0000
     37 C         140.0112  142.1403  152.8926 C.ar    1  UNL1        0.0000
     38 C         138.5120  142.1540  152.9397 C.ar    1  UNL1        0.0015
     39 C         134.0016  141.1378  154.8353 C.ar    1  UNL1        0.1353
     40 N         133.9703  141.9795  153.5940 N.ar    1  UNL1       -0.2279
     41 C         135.3864  142.2266  153.1657 C.ar    1  UNL1        0.1171
     42 C         136.2930  141.5376  154.1422 C.ar    1  UNL1        0.0769
     43 N         135.4372  140.8647  155.1740 N.ar    1  UNL1       -0.3394
     44 H         135.7608  140.3366  155.9392 H       1  UNL1        0.1671
     45 C         130.8795  141.7593  154.1171 C.2     1  UNL1        0.2439
     46 O         131.8596  142.3789  153.1654 O.2     1  UNL1       -0.2731
     47 N         131.3721  140.9398  155.2729 N.am    1  UNL1       -0.2730
     48 C         130.5161  140.2621  156.3014 C.3     1  UNL1        0.0938
     49 C         131.4221  139.5576  157.2672 C.3     1  UNL1        0.0220
     50 C         130.9883  138.7521  158.4560 C.3     1  UNL1        0.0018
     51 C         132.8380  139.7999  156.8355 C.3     1  UNL1        0.0293
     52 C         132.8071  140.6541  155.6029 C.3     1  UNL1        0.1319
     53 C         129.4070  141.9593  153.9131 C.3     1  UNL1        0.1512
     54 C         127.4671  140.2701  154.2788 C.2     1  UNL1        0.4021
     55 O         127.2242  140.8444  155.6430 O.2     1  UNL1       -0.2264
     56 N         128.5585  140.8275  153.4138 N.am    1  UNL1       -0.2640
     57 H         128.7179  140.4505  152.5184 H       1  UNL1        0.1532
     58 C         126.4768  137.8895  154.5983 C.3     1  UNL1        0.2573
     59 O         126.6187  139.1384  153.7796 O.3     1  UNL1       -0.4306
     60 C         128.7829  143.2910  154.2082 C.3     1  UNL1        0.0270
     61 C         129.3027  144.1287  155.3388 C.3     1  UNL1        0.0022
     62 C         127.6392  143.7849  153.3729 C.3     1  UNL1        0.0022
@<TRIPOS>BOND
     1    58    59    1
     2    59    54    1
     3    54    55    2
     4    54    56   am
     5    53    56    1
     6    53    45    1
     7    45    46    2
     8    45    47   am
     9    47    48    1
    10    48    49    1
    11    49    50    1
    12    49    51    1
    13    51    52    1
    14    52    39    1
    15    39    40   ar
    16    40    41   ar
    17    41    42   ar
    18    42    33    1
    19    33    34   ar
    20    34    35   ar
    21    35    36   ar
    22    36     1    1
    23     1     2   ar
    24     2     3   ar
    25     3     4   ar
    26     4     7    1
    27     7     8    2
    28     8     9    1
    29     9    10    2
    30    10    11    1
    31    15    11    1
    32    15    16    1
    33    16    17    1
    34    17    18    1
    35    17    19    1
    36    19    20    1
    37    20    21   am
    38    21    22    2
    39    21    23    1
    40    23    24    1
    41    24    25   am
    42    25    26    2
    43    25    28    1
    44    28    29    1
    45    23    30    1
    46    30    31    1
    47    30    32    1
    48    11    12    2
    49    12    13    1
    50    13    14    1
    51     4     5   ar
    52     5     6   ar
    53    36    37   ar
    54    37    38   ar
    55    42    43   ar
    56    53    60    1
    57    60    61    1
    58    60    62    1
    59    52    47    1
    60    43    39   ar
    61    38    33   ar
    62     6     1   ar
    63    14     7    1
    64    13     9    1
    65    20    15    1
    66    56    57    1
    67    24    27    1
    68    43    44    1
@<TRIPOS>MOLECULE
*****
 62 68 0 0 0
SMALL
GASTEIGER

@<TRIPOS>ATOM
      1 C         140.6667  142.9412  155.6167 C.ar    1  UNL1        0.0000
      2 C         139.2876  143.4441  155.9254 C.ar    1  UNL1        0.0000
      3 C         138.9576  144.8947  155.7329 C.ar    1  UNL1        0.0005
      4 C         140.0068  145.8424  155.2318 C.ar    1  UNL1        0.0059
      5 C         141.3859  145.3395  154.9231 C.ar    1  UNL1        0.0005
      6 C         141.7158  143.8889  155.1156 C.ar    1  UNL1        0.0000
      7 C         139.6769  147.2929  155.0393 C.2     1  UNL1        0.0330
      8 C         140.2354  148.1905  153.9751 C.2     1  UNL1        0.0537
      9 C         139.6343  149.5529  154.1554 C.2     1  UNL1        0.2309
     10 N         139.6079  150.9496  153.6091 N.2     1  UNL1       -0.0364
     11 C         138.6616  151.7573  154.4470 C.2     1  UNL1        0.3653
     12 N         138.1031  150.8597  155.5112 N.2     1  UNL1       -0.0462
     13 C         138.7042  149.4973  155.3310 C.3     1  UNL1        0.3308
     14 S         138.7306  148.1006  155.8773 S.3     1  UNL1       -0.0538
     15 C         138.3317  153.2078  154.2546 C.3     1  UNL1        0.1874
     16 C         138.0756  153.8872  152.9419 C.3     1  UNL1        0.0344
     17 C         137.7856  155.3330  153.2171 C.3     1  UNL1        0.0221
     18 C         137.4736  156.3806  152.1899 C.3     1  UNL1        0.0018
     19 C         137.8624  155.5472  154.6997 C.3     1  UNL1        0.0940
     20 N         138.1999  154.2338  155.3409 N.am    1  UNL1       -0.2691
     21 C         138.3749  153.9892  156.8105 C.2     1  UNL1        0.2440
     22 O         138.7136  152.6148  157.3070 O.2     1  UNL1       -0.2731
     23 C         138.2112  155.1189  157.7835 C.3     1  UNL1        0.1512
     24 N         136.8686  155.7623  157.9669 N.am    1  UNL1       -0.2640
     25 C         136.0672  155.4858  159.2044 C.2     1  UNL1        0.4021
     26 O         136.6083  154.5659  160.2584 O.2     1  UNL1       -0.2264
     27 H         136.5135  156.3660  157.2751 H       1  UNL1        0.1532
     28 O         134.7246  156.1292  159.3877 O.3     1  UNL1       -0.4306
     29 C         134.0114  156.0148  160.7024 C.3     1  UNL1        0.2573
     30 C         139.3902  155.6054  158.5732 C.3     1  UNL1        0.0270
     31 C         139.4794  155.3167  160.0425 C.3     1  UNL1        0.0022
     32 C         140.4798  156.3806  157.8937 C.3     1  UNL1        0.0022
     33 C         141.6563  138.5896  156.1942 C.ar    1  UNL1        0.0172
     34 C         141.1554  139.0750  154.8662 C.ar    1  UNL1        0.0015
     35 C         140.8256  140.5255  154.6737 C.ar    1  UNL1        0.0000
     36 C         140.9966  141.4907  155.8092 C.ar    1  UNL1        0.0000
     37 C         141.4974  141.0053  157.1371 C.ar    1  UNL1        0.0000
     38 C         141.8273  139.5547  157.3296 C.ar    1  UNL1        0.0015
     39 C         142.0186  134.7256  156.1318 C.ar    1  UNL1        0.1353
     40 N         142.9692  135.0881  157.2340 N.ar    1  UNL1       -0.2279
     41 C         142.9492  136.5797  157.3916 C.ar    1  UNL1        0.1171
     42 C         141.9862  137.1390  156.3867 C.ar    1  UNL1        0.0769
     43 N         141.4111  135.9932  155.6081 N.ar    1  UNL1       -0.3394
     44 H         140.7508  136.0612  154.8810 H       1  UNL1        0.1671
     45 C         143.8652  132.0827  156.6364 C.2     1  UNL1        0.2439
     46 O         144.4129  133.3363  157.2518 O.2     1  UNL1       -0.2731
     47 N         142.5755  132.1242  155.8715 N.am    1  UNL1       -0.2730
     48 C         141.9083  130.9582  155.2044 C.3     1  UNL1        0.0938
     49 C         140.6470  131.4524  154.5601 C.3     1  UNL1        0.0220
     50 C         139.6695  130.6210  153.7831 C.3     1  UNL1        0.0018
     51 C         140.5349  132.9238  154.8291 C.3     1  UNL1        0.0293
     52 C         141.7268  133.3390  155.6396 C.3     1  UNL1        0.1319
     53 C         144.6072  130.7877  156.7859 C.3     1  UNL1        0.1512
     54 C         144.9717  128.9278  155.0088 C.2     1  UNL1        0.4021
     55 O         143.7847  128.1834  155.5444 O.2     1  UNL1       -0.2264
     56 N         145.3829  130.2299  155.6294 N.am    1  UNL1       -0.2640
     57 H         146.1620  130.7185  155.2779 H       1  UNL1        0.1532
     58 C         145.0412  128.0129  152.5781 C.3     1  UNL1        0.2573
     59 O         145.7474  128.3701  153.8524 O.3     1  UNL1       -0.4306
     60 C         144.5735  130.0504  158.0917 C.3     1  UNL1        0.0270
     61 C         143.3158  129.3616  158.5319 C.3     1  UNL1        0.0022
     62 C         145.7975  130.0020  158.9574 C.3     1  UNL1        0.0022
@<TRIPOS>BOND
     1    58    59    1
     2    59    54    1
     3    54    55    2
     4    54    56   am
     5    53    56    1
     6    53    45    1
     7    45    46    2
     8    45    47   am
     9    47    48    1
    10    48    49    1
    11    49    50    1
    12    49    51    1
    13    51    52    1
    14    52    39    1
    15    39    40   ar
    16    40    41   ar
    17    41    42   ar
    18    42    33    1
    19    33    34   ar
    20    34    35   ar
    21    35    36   ar
    22    36     1    1
    23     1     2   ar
    24     2     3   ar
    25     3     4   ar
    26     4     7    1
    27     7     8    2
    28     8     9    1
    29     9    10    2
    30    10    11    1
    31    15    11    1
    32    15    16    1
    33    16    17    1
    34    17    18    1
    35    17    19    1
    36    19    20    1
    37    20    21   am
    38    21    22    2
    39    21    23    1
    40    23    24    1
    41    24    25   am
    42    25    26    2
    43    25    28    1
    44    28    29    1
    45    23    30    1
    46    30    31    1
    47    30    32    1
    48    11    12    2
    49    12    13    1
    50    13    14    1
    51     4     5   ar
    52     5     6   ar
    53    36    37   ar
    54    37    38   ar
    55    42    43   ar
    56    53    60    1
    57    60    61    1
    58    60    62    1
    59    52    47    1
    60    43    39   ar
    61    38    33   ar
    62     6     1   ar
    63    14     7    1
    64    13     9    1
    65    20    15    1
    66    56    57    1
    67    24    27    1
    68    43    44    1
@<TRIPOS>MOLECULE
*****
 62 68 0 0 0
SMALL
GASTEIGER

@<TRIPOS>ATOM
      1 C         140.2986  142.5470  155.3484 C.ar    1  UNL1        0.0000
      2 C         140.3271  143.3607  156.6081 C.ar    1  UNL1        0.0000
      3 C         140.0610  144.8360  156.5544 C.ar    1  UNL1        0.0005
      4 C         139.7664  145.4975  155.2408 C.ar    1  UNL1        0.0059
      5 C         139.7380  144.6838  153.9810 C.ar    1  UNL1        0.0005
      6 C         140.0041  143.2086  154.0348 C.ar    1  UNL1        0.0000
      7 C         139.5003  146.9728  155.1870 C.2     1  UNL1        0.0330
      8 C         140.0923  147.9402  154.2054 C.2     1  UNL1        0.0537
      9 C         139.5533  149.3049  154.5171 C.2     1  UNL1        0.2309
     10 N         139.5861  150.7462  154.1031 N.2     1  UNL1       -0.0364
     11 C         138.6813  151.5130  155.0214 C.2     1  UNL1        0.3653
     12 N         138.0893  150.5455  156.0030 N.2     1  UNL1       -0.0462
     13 C         138.6282  149.1808  155.6913 C.3     1  UNL1        0.3308
     14 S         138.5955  147.7395  156.1053 S.3     1  UNL1       -0.0538
     15 C         138.4152  152.9882  154.9676 C.3     1  UNL1        0.1874
     16 C         138.2102  153.8024  153.7245 C.3     1  UNL1        0.0344
     17 C         137.9757  155.2257  154.1361 C.3     1  UNL1        0.0221
     18 C         137.7251  156.3807  153.2124 C.3     1  UNL1        0.0018
     19 C         138.0356  155.2911  155.6335 C.3     1  UNL1        0.0940
     20 N         138.3072  153.9083  156.1474 N.am    1  UNL1       -0.2691
     21 C         138.4465  153.5146  157.5881 C.2     1  UNL1        0.2440
     22 O         138.7192  152.0852  157.9520 O.2     1  UNL1       -0.2731
     23 C         138.3129  154.5504  158.6648 C.3     1  UNL1        0.1512
     24 N         137.0733  154.6002  159.5080 N.am    1  UNL1       -0.2640
     25 C         135.9452  155.5137  159.1298 C.2     1  UNL1        0.4021
     26 O         136.0567  156.3773  157.9084 O.2     1  UNL1       -0.2264
     27 H         137.0001  154.0333  160.3096 H       1  UNL1        0.1532
     28 O         134.7057  155.5634  159.9730 O.3     1  UNL1       -0.4306
     29 C         134.7592  156.1541  161.3509 C.3     1  UNL1        0.2573
     30 C         139.4190  155.5363  158.8984 C.3     1  UNL1        0.0270
     31 C         139.9944  155.7063  160.2732 C.3     1  UNL1        0.0022
     32 C         139.9498  156.3524  157.7572 C.3     1  UNL1        0.0022
     33 C         141.0969  138.1214  155.5097 C.ar    1  UNL1        0.0172
     34 C         141.2442  138.9556  156.7476 C.ar    1  UNL1        0.0015
     35 C         140.9781  140.4309  156.6938 C.ar    1  UNL1        0.0000
     36 C         140.5647  141.0718  155.4022 C.ar    1  UNL1        0.0000
     37 C         140.4174  140.2375  154.1644 C.ar    1  UNL1        0.0000
     38 C         140.6835  138.7623  154.2182 C.ar    1  UNL1        0.0015
     39 C         142.3971  134.5030  156.0416 C.ar    1  UNL1        0.1353
     40 N         141.1478  134.2489  155.2511 N.ar    1  UNL1       -0.2279
     41 C         140.5087  135.5734  154.9557 C.ar    1  UNL1        0.1171
     42 C         141.3630  136.6461  155.5635 C.ar    1  UNL1        0.0769
     43 N         142.5301  135.9847  156.2346 N.ar    1  UNL1       -0.3394
     44 H         143.2559  136.4425  156.7171 H       1  UNL1        0.1671
     45 C         142.5488  131.3997  155.0438 C.2     1  UNL1        0.2439
     46 O         141.4944  132.2122  154.3521 O.2     1  UNL1       -0.2731
     47 N         143.4164  132.0325  156.0911 N.am    1  UNL1       -0.2730
     48 C         144.5060  131.3499  156.8635 C.3     1  UNL1        0.0938
     49 C         145.1098  132.3545  157.7996 C.3     1  UNL1        0.0220
     50 C         146.2329  132.1004  158.7610 C.3     1  UNL1        0.0018
     51 C         144.3932  133.6580  157.6056 C.3     1  UNL1        0.0293
     52 C         143.3467  133.4589  156.5497 C.3     1  UNL1        0.1319
     53 C         142.7355  129.9545  154.6881 C.3     1  UNL1        0.1512
     54 C         140.5855  128.4993  154.7892 C.2     1  UNL1        0.4021
     55 O         140.0870  129.1486  153.5322 O.2     1  UNL1       -0.2264
     56 N         141.9097  128.9023  155.3671 N.am    1  UNL1       -0.2640
     57 H         142.2369  128.4761  156.1921 H       1  UNL1        0.1532
     58 C         140.2243  126.8491  156.7631 C.3     1  UNL1        0.2573
     59 O         139.7598  127.4472  155.4682 O.3     1  UNL1       -0.4306
     60 C         143.7480  129.5615  153.6535 C.3     1  UNL1        0.0270
     61 C         145.0288  128.9014  154.0703 C.3     1  UNL1        0.0022
     62 C         143.4796  129.8285  152.2021 C.3     1  UNL1        0.0022
@<TRIPOS>BOND
     1    58    59    1
     2    59    54    1
     3    54    55    2
     4    54    56   am
     5    53    56    1
     6    53    45    1
     7    45    46    2
     8    45    47   am
     9    47    48    1
    10    48    49    1
    11    49    50    1
    12    49    51    1
    13    51    52    1
    14    52    39    1
    15    39    40   ar
    16    40    41   ar
    17    41    42   ar
    18    42    33    1
    19    33    34   ar
    20    34    35   ar
    21    35    36   ar
    22    36     1    1
    23     1     2   ar
    24     2     3   ar
    25     3     4   ar
    26     4     7    1
    27     7     8    2
    28     8     9    1
    29     9    10    2
    30    10    11    1
    31    15    11    1
    32    15    16    1
    33    16    17    1
    34    17    18    1
    35    17    19    1
    36    19    20    1
    37    20    21   am
    38    21    22    2
    39    21    23    1
    40    23    24    1
    41    24    25   am
    42    25    26    2
    43    25    28    1
    44    28    29    1
    45    23    30    1
    46    30    31    1
    47    30    32    1
    48    11    12    2
    49    12    13    1
    50    13    14    1
    51     4     5   ar
    52     5     6   ar
    53    36    37   ar
    54    37    38   ar
    55    42    43   ar
    56    53    60    1
    57    60    61    1
    58    60    62    1
    59    52    47    1
    60    43    39   ar
    61    38    33   ar
    62     6     1   ar
    63    14     7    1
    64    13     9    1
    65    20    15    1
    66    56    57    1
    67    24    27    1
    68    43    44    1
@<TRIPOS>MOLECULE
*****
 62 68 0 0 0
SMALL
GASTEIGER

@<TRIPOS>ATOM
      1 C         142.5660  141.3551  154.9477 C.ar    1  UNL1        0.0000
      2 C         143.2638  140.3259  154.1087 C.ar    1  UNL1        0.0000
      3 C         144.7477  140.4057  153.9039 C.ar    1  UNL1        0.0005
      4 C         145.5337  141.5148  154.5381 C.ar    1  UNL1        0.0059
      5 C         144.8359  142.5439  155.3771 C.ar    1  UNL1        0.0005
      6 C         143.3520  142.4641  155.5820 C.ar    1  UNL1        0.0000
      7 C         147.0175  141.5946  154.3334 C.2     1  UNL1        0.0330
      8 C         148.0646  141.4134  155.3920 C.2     1  UNL1        0.0537
      9 C         149.4089  141.5765  154.7468 C.2     1  UNL1        0.2309
     10 N         150.8870  141.5654  155.0024 N.2     1  UNL1       -0.0364
     11 C         151.5842  141.8405  153.7030 C.2     1  UNL1        0.3653
     12 N         150.5370  142.0217  152.6444 N.2     1  UNL1       -0.0462
     13 C         149.1926  141.8586  153.2895 C.3     1  UNL1        0.3308
     14 S         147.7146  141.8698  153.0340 S.3     1  UNL1       -0.0538
     15 C         153.0679  141.9204  153.4983 C.3     1  UNL1        0.1874
     16 C         153.8825  141.0391  152.5982 C.3     1  UNL1        0.0344
     17 C         155.3157  141.4696  152.7013 C.3     1  UNL1        0.0221
     18 C         156.4742  140.8599  151.9692 C.3     1  UNL1        0.0018
     19 C         155.3869  142.6169  153.6649 C.3     1  UNL1        0.0940
     20 N         153.9978  142.8955  154.1574 N.am    1  UNL1       -0.2691
     21 C         153.6070  143.9620  155.1372 C.2     1  UNL1        0.2440
     22 O         152.1704  144.1224  155.5379 O.2     1  UNL1       -0.2731
     23 C         154.6528  144.8681  155.7163 C.3     1  UNL1        0.1512
     24 N         155.4244  144.4431  156.9303 N.am    1  UNL1       -0.2640
     25 C         155.0550  144.9823  158.2805 C.2     1  UNL1        0.4021
     26 O         153.9139  145.9463  158.4166 O.2     1  UNL1       -0.2264
     27 H         156.1734  143.8104  156.8410 H       1  UNL1        0.1532
     28 O         155.8267  144.5573  159.4945 O.3     1  UNL1       -0.4306
     29 C         155.6537  145.2948  160.7893 C.3     1  UNL1        0.2573
     30 C         154.9269  146.1991  155.0812 C.3     1  UNL1        0.0270
     31 C         155.9038  146.3024  153.9476 C.3     1  UNL1        0.0022
     32 C         154.2242  147.4270  155.5799 C.3     1  UNL1        0.0022
     33 C         138.1146  141.1154  155.5620 C.ar    1  UNL1        0.0172
     34 C         138.8952  142.2452  156.1655 C.ar    1  UNL1        0.0015
     35 C         140.3790  142.3251  155.9607 C.ar    1  UNL1        0.0000
     36 C         141.0822  141.2752  155.1525 C.ar    1  UNL1        0.0000
     37 C         140.3016  140.1454  154.5490 C.ar    1  UNL1        0.0000
     38 C         138.8178  140.0655  154.7538 C.ar    1  UNL1        0.0015
     39 C         134.2375  141.1721  155.3869 C.ar    1  UNL1        0.1353
     40 N         134.4574  140.6530  156.7769 N.ar    1  UNL1       -0.2279
     41 C         135.9365  140.5686  157.0117 C.ar    1  UNL1        0.1171
     42 C         136.6308  141.0355  155.7667 C.ar    1  UNL1        0.0769
     43 N         135.5809  141.4085  154.7625 N.ar    1  UNL1       -0.3394
     44 H         135.7446  141.7487  153.8533 H       1  UNL1        0.1671
     45 C         131.3339  140.2492  156.5560 C.2     1  UNL1        0.2439
     46 O         132.4924  139.8687  157.4296 O.2     1  UNL1       -0.2731
     47 N         131.5733  140.9884  155.2728 N.am    1  UNL1       -0.2730
     48 C         130.5200  141.4331  154.3019 C.3     1  UNL1        0.0938
     49 C         131.2037  142.1321  153.1644 C.3     1  UNL1        0.0220
     50 C         130.5298  142.7376  151.9688 C.3     1  UNL1        0.0018
     51 C         132.6795  142.1194  153.4324 C.3     1  UNL1        0.0293
     52 C         132.9079  141.4125  154.7355 C.3     1  UNL1        0.1319
     53 C         129.9362  139.8907  156.9655 C.3     1  UNL1        0.1512
     54 C         127.7660  141.2748  156.6128 C.2     1  UNL1        0.4021
     55 O         127.4880  140.5169  155.3486 O.2     1  UNL1       -0.2264
     56 N         128.9900  140.9618  157.4212 N.am    1  UNL1       -0.2640
     57 H         129.1725  141.4592  158.2510 H       1  UNL1        0.1532
     58 C         126.7668  143.6579  156.3434 C.3     1  UNL1        0.2573
     59 O         126.8199  142.3459  157.0686 O.3     1  UNL1       -0.4306
     60 C         129.4845  138.4610  156.9192 C.3     1  UNL1        0.0270
     61 C         129.0766  137.7621  158.1822 C.3     1  UNL1        0.0022
     62 C         129.4408  137.7303  155.6100 C.3     1  UNL1        0.0022
@<TRIPOS>BOND
     1    58    59    1
     2    59    54    1
     3    54    55    2
     4    54    56   am
     5    53    56    1
     6    53    45    1
     7    45    46    2
     8    45    47   am
     9    47    48    1
    10    48    49    1
    11    49    50    1
    12    49    51    1
    13    51    52    1
    14    52    39    1
    15    39    40   ar
    16    40    41   ar
    17    41    42   ar
    18    42    33    1
    19    33    34   ar
    20    34    35   ar
    21    35    36   ar
    22    36     1    1
    23     1     2   ar
    24     2     3   ar
    25     3     4   ar
    26     4     7    1
    27     7     8    2
    28     8     9    1
    29     9    10    2
    30    10    11    1
    31    15    11    1
    32    15    16    1
    33    16    17    1
    34    17    18    1
    35    17    19    1
    36    19    20    1
    37    20    21   am
    38    21    22    2
    39    21    23    1
    40    23    24    1
    41    24    25   am
    42    25    26    2
    43    25    28    1
    44    28    29    1
    45    23    30    1
    46    30    31    1
    47    30    32    1
    48    11    12    2
    49    12    13    1
    50    13    14    1
    51     4     5   ar
    52     5     6   ar
    53    36    37   ar
    54    37    38   ar
    55    42    43   ar
    56    53    60    1
    57    60    61    1
    58    60    62    1
    59    52    47    1
    60    43    39   ar
    61    38    33   ar
    62     6     1   ar
    63    14     7    1
    64    13     9    1
    65    20    15    1
    66    56    57    1
    67    24    27    1
    68    43    44    1
