@<TRIPOS>MOLECULE
*****
 41 44 0 0 0
SMALL
GASTEIGER

@<TRIPOS>ATOM
      1 C         141.0540  141.8304  165.0178 C.3     1  UNL1        0.0800
      2 C         140.8164  142.8113  163.9080 C.ar    1  UNL1        0.0374
      3 C         141.3251  142.5195  162.5275 C.ar    1  UNL1        0.0023
      4 C         141.0875  143.5004  161.4177 C.ar    1  UNL1        0.0181
      5 C         141.5963  143.2086  160.0371 C.ar    1  UNL1        0.0082
      6 C         141.3587  144.1894  158.9274 C.ar    1  UNL1        0.0347
      7 BR        141.8675  143.8977  157.5468 Br      1  UNL1       -0.0490
      8 C         140.6123  145.4620  159.1983 C.ar    1  UNL1        0.0082
      9 C         140.1035  145.7538  160.5788 C.ar    1  UNL1        0.0197
     10 C         140.3411  144.7730  161.6885 C.ar    1  UNL1        0.0844
     11 N         139.8323  145.0647  163.0692 N.ar    1  UNL1       -0.2119
     12 C         140.0700  144.0839  164.1789 C.ar    1  UNL1        0.2211
     13 O         139.5612  144.3756  165.5595 O.3     1  UNL1       -0.4563
     14 C         138.2487  145.0784  165.7421 C.3     1  UNL1        0.2542
     15 C         140.1652  140.6307  165.1615 C.ar    1  UNL1        0.0148
     16 C         139.4750  140.3604  166.4655 C.ar    1  UNL1       -0.0014
     17 C         138.5863  139.1607  166.6092 C.ar    1  UNL1        0.0029
     18 C         138.3876  138.2311  165.4488 C.ar    1  UNL1        0.0392
     19 C         139.0778  138.5014  164.1447 C.ar    1  UNL1        0.1657
     20 C         139.9666  139.7012  164.0011 C.ar    1  UNL1        0.1702
     21 F         140.6568  139.9715  162.6970 F       1  UNL1       -0.2013
     22 O         138.8792  137.5719  162.9843 O.3     1  UNL1       -0.4692
     23 C         138.0567  138.0064  161.8076 C.3     1  UNL1        0.2526
     24 C         142.1804  142.0494  165.9839 C.3     1  UNL1        0.1189
     25 O         141.1933  142.4192  167.0510 O.3     1  UNL1       -0.3819
     26 H         141.6672  142.6325  167.8700 H       1  UNL1        0.2107
     27 C         144.2656  139.8856  163.3915 C.ar    1  UNL1        0.2249
     28 C         143.2785  140.2555  164.4587 C.ar    1  UNL1        0.0587
     29 C         143.1675  141.6795  164.9167 C.ar    1  UNL1        0.0426
     30 C         144.0437  142.7336  164.3076 C.ar    1  UNL1        0.1562
     31 C         145.0308  142.3638  163.2405 C.ar    1  UNL1        0.1385
     32 N         145.1418  140.9398  162.7825 N.ar    1  UNL1       -0.2070
     33 C         143.6331  138.0063  161.7128 C.3     1  UNL1        0.2542
     34 O         144.3765  138.4615  162.9335 O.3     1  UNL1       -0.4561
     35 O         143.9328  144.1578  164.7657 O.3     1  UNL1       -0.4701
     36 C         143.8109  144.9843  163.5199 C.3     1  UNL1        0.2525
     37 C         143.3068  142.2683  166.9499 C.3     1  UNL1        0.0492
     38 C         143.0760  142.0974  168.4222 C.3     1  UNL1        0.0750
     39 N         142.9065  140.7236  169.0002 N.3     1  UNL1       -0.2702
     40 C         142.7113  139.5464  168.0914 C.3     1  UNL1        0.0897
     41 C         142.9322  140.5272  170.4872 C.3     1  UNL1        0.0897
@<TRIPOS>BOND
     1    33    34    1
     2    34    27    1
     3    27    28   ar
     4    28    29   ar
     5    29    24    1
     6    24    25    1
     7    24    37    1
     8    37    38    1
     9    38    39    1
    10    39    40    1
    11    39    41    1
    12    24     1    1
    13     1     2    1
    14     2     3   ar
    15     3     4   ar
    16     4     5   ar
    17     5     6   ar
    18     6     7    1
    19     6     8   ar
    20     8     9   ar
    21     9    10   ar
    22    10    11   ar
    23    11    12   ar
    24    12    13    1
    25    13    14    1
    26     1    15    1
    27    15    16   ar
    28    16    17   ar
    29    17    18   ar
    30    18    19   ar
    31    19    22    1
    32    22    23    1
    33    19    20   ar
    34    20    21    1
    35    29    30   ar
    36    30    35    1
    37    35    36    1
    38    30    31   ar
    39    31    32   ar
    40    32    27   ar
    41    12     2   ar
    42    20    15   ar
    43    10     4   ar
    44    25    26    1
@<TRIPOS>MOLECULE
*****
 41 44 0 0 0
SMALL
GASTEIGER

@<TRIPOS>ATOM
      1 C         142.0918  140.9356  162.9775 C.3     1  UNL1        0.0800
      2 C         142.3933  141.2941  164.4026 C.ar    1  UNL1        0.0374
      3 C         141.5949  140.6818  165.5150 C.ar    1  UNL1        0.0023
      4 C         141.8964  141.0402  166.9400 C.ar    1  UNL1        0.0181
      5 C         141.0979  140.4280  168.0524 C.ar    1  UNL1        0.0082
      6 C         141.3995  140.7864  169.4774 C.ar    1  UNL1        0.0347
      7 BR        140.6010  140.1741  170.5899 Br      1  UNL1       -0.0490
      8 C         142.4995  141.7572  169.7899 C.ar    1  UNL1        0.0082
      9 C         143.2979  142.3694  168.6775 C.ar    1  UNL1        0.0197
     10 C         142.9964  142.0110  167.2525 C.ar    1  UNL1        0.0844
     11 N         143.7949  142.6233  166.1400 N.ar    1  UNL1       -0.2119
     12 C         143.4933  142.2648  164.7151 C.ar    1  UNL1        0.2211
     13 O         144.2918  142.8771  163.6026 O.3     1  UNL1       -0.4563
     14 C         144.0644  144.3085  163.2159 C.3     1  UNL1        0.2542
     15 C         141.3543  141.9036  162.1006 C.ar    1  UNL1        0.0148
     16 C         142.0166  142.4606  160.8754 C.ar    1  UNL1       -0.0014
     17 C         141.2791  143.4286  159.9985 C.ar    1  UNL1        0.0029
     18 C         139.8791  143.8397  160.3468 C.ar    1  UNL1        0.0392
     19 C         139.2168  143.2827  161.5720 C.ar    1  UNL1        0.1657
     20 C         139.9544  142.3147  162.4489 C.ar    1  UNL1        0.1702
     21 F         139.2920  141.7577  163.6741 F       1  UNL1       -0.2013
     22 O         137.8169  143.6937  161.9203 O.3     1  UNL1       -0.4692
     23 C         137.5467  144.4242  163.2022 C.3     1  UNL1        0.2526
     24 C         142.5278  139.6092  162.4294 C.3     1  UNL1        0.1189
     25 O         143.9246  140.1331  162.2728 O.3     1  UNL1       -0.3819
     26 H         144.4915  139.4373  161.9048 H       1  UNL1        0.2107
     27 C         139.2774  138.0284  164.0684 C.ar    1  UNL1        0.2249
     28 C         140.6742  138.5523  163.9117 C.ar    1  UNL1        0.0587
     29 C         141.1310  139.0853  162.5861 C.ar    1  UNL1        0.0426
     30 C         140.1911  139.0944  161.4172 C.ar    1  UNL1        0.1562
     31 C         138.7943  138.5705  161.5739 C.ar    1  UNL1        0.1385
     32 N         138.3375  138.0375  162.8995 N.ar    1  UNL1       -0.2070
     33 C         138.0538  138.3783  166.3334 C.3     1  UNL1        0.2542
     34 O         138.8206  137.4954  165.3940 O.3     1  UNL1       -0.4561
     35 O         140.6479  139.6274  160.0916 O.3     1  UNL1       -0.4701
     36 C         139.4143  140.1269  159.3996 C.3     1  UNL1        0.2525
     37 C         142.9638  138.2827  161.8814 C.3     1  UNL1        0.0492
     38 C         143.9487  138.2252  160.7514 C.3     1  UNL1        0.0750
     39 N         143.5286  138.6286  159.3691 N.3     1  UNL1       -0.2702
     40 C         142.7540  137.6723  158.5115 C.3     1  UNL1        0.0897
     41 C         143.8830  139.9885  158.8444 C.3     1  UNL1        0.0897
@<TRIPOS>BOND
     1    33    34    1
     2    34    27    1
     3    27    28   ar
     4    28    29   ar
     5    29    24    1
     6    24    25    1
     7    24    37    1
     8    37    38    1
     9    38    39    1
    10    39    40    1
    11    39    41    1
    12    24     1    1
    13     1     2    1
    14     2     3   ar
    15     3     4   ar
    16     4     5   ar
    17     5     6   ar
    18     6     7    1
    19     6     8   ar
    20     8     9   ar
    21     9    10   ar
    22    10    11   ar
    23    11    12   ar
    24    12    13    1
    25    13    14    1
    26     1    15    1
    27    15    16   ar
    28    16    17   ar
    29    17    18   ar
    30    18    19   ar
    31    19    22    1
    32    22    23    1
    33    19    20   ar
    34    20    21    1
    35    29    30   ar
    36    30    35    1
    37    35    36    1
    38    30    31   ar
    39    31    32   ar
    40    32    27   ar
    41    12     2   ar
    42    20    15   ar
    43    10     4   ar
    44    25    26    1
@<TRIPOS>MOLECULE
*****
 41 44 0 0 0
SMALL
GASTEIGER

@<TRIPOS>ATOM
      1 C         140.3814  140.4688  162.9614 C.3     1  UNL1        0.0800
      2 C         140.2276  140.4094  164.4524 C.ar    1  UNL1        0.0374
      3 C         140.4133  141.6494  165.2756 C.ar    1  UNL1        0.0023
      4 C         140.2595  141.5900  166.7665 C.ar    1  UNL1        0.0181
      5 C         140.4452  142.8300  167.5897 C.ar    1  UNL1        0.0082
      6 C         140.2914  142.7705  169.0806 C.ar    1  UNL1        0.0347
      7 BR        140.4771  144.0106  169.9039 Br      1  UNL1       -0.0490
      8 C         139.9518  141.4710  169.7483 C.ar    1  UNL1        0.0082
      9 C         139.7661  140.2309  168.9251 C.ar    1  UNL1        0.0197
     10 C         139.9199  140.2904  167.4342 C.ar    1  UNL1        0.0844
     11 N         139.7342  139.0503  166.6110 N.ar    1  UNL1       -0.2119
     12 C         139.8880  139.1098  165.1201 C.ar    1  UNL1        0.2211
     13 O         139.7023  137.8697  164.2968 O.3     1  UNL1       -0.4563
     14 C         140.8509  136.9272  164.0909 C.3     1  UNL1        0.2542
     15 C         141.7105  140.1730  162.3322 C.ar    1  UNL1        0.0148
     16 C         141.8418  139.0455  161.3516 C.ar    1  UNL1       -0.0014
     17 C         143.1708  138.7497  160.7224 C.ar    1  UNL1        0.0029
     18 C         144.3687  139.5814  161.0737 C.ar    1  UNL1        0.0392
     19 C         144.2375  140.7089  162.0543 C.ar    1  UNL1        0.1657
     20 C         142.9083  141.0047  162.6835 C.ar    1  UNL1        0.1702
     21 F         142.7770  142.1322  163.6641 F       1  UNL1       -0.2013
     22 O         145.4353  141.5406  162.4056 O.3     1  UNL1       -0.4692
     23 C         145.9242  141.5904  163.8228 C.3     1  UNL1        0.2526
     24 C         139.2061  140.8241  162.0998 C.3     1  UNL1        0.1189
     25 O         138.7101  139.4116  162.1939 O.3     1  UNL1       -0.3819
     26 H         137.8866  139.3237  161.6889 H       1  UNL1        0.2107
     27 C         141.3310  143.9862  160.9882 C.ar    1  UNL1        0.2249
     28 C         140.8351  142.5737  161.0823 C.ar    1  UNL1        0.0587
     29 C         139.7021  142.2366  162.0057 C.ar    1  UNL1        0.0426
     30 C         139.0650  143.3120  162.8349 C.ar    1  UNL1        0.1562
     31 C         139.5610  144.7245  162.7408 C.ar    1  UNL1        0.1385
     32 N         140.6940  145.0616  161.8174 N.ar    1  UNL1       -0.2070
     33 C         142.4304  143.8636  158.6373 C.3     1  UNL1        0.2542
     34 O         142.4641  144.3233  160.0648 O.3     1  UNL1       -0.4561
     35 O         137.9320  142.9749  163.7583 O.3     1  UNL1       -0.4701
     36 C         137.8106  144.1332  164.7037 C.3     1  UNL1        0.2525
     37 C         138.0308  141.1794  161.2382 C.3     1  UNL1        0.0492
     38 C         137.5063  140.1901  160.2400 C.3     1  UNL1        0.0750
     39 N         138.1589  140.0638  158.8953 N.3     1  UNL1       -0.2702
     40 C         137.6563  140.8757  157.7385 C.3     1  UNL1        0.0897
     41 C         139.3140  139.1254  158.7073 C.3     1  UNL1        0.0897
@<TRIPOS>BOND
     1    33    34    1
     2    34    27    1
     3    27    28   ar
     4    28    29   ar
     5    29    24    1
     6    24    25    1
     7    24    37    1
     8    37    38    1
     9    38    39    1
    10    39    40    1
    11    39    41    1
    12    24     1    1
    13     1     2    1
    14     2     3   ar
    15     3     4   ar
    16     4     5   ar
    17     5     6   ar
    18     6     7    1
    19     6     8   ar
    20     8     9   ar
    21     9    10   ar
    22    10    11   ar
    23    11    12   ar
    24    12    13    1
    25    13    14    1
    26     1    15    1
    27    15    16   ar
    28    16    17   ar
    29    17    18   ar
    30    18    19   ar
    31    19    22    1
    32    22    23    1
    33    19    20   ar
    34    20    21    1
    35    29    30   ar
    36    30    35    1
    37    35    36    1
    38    30    31   ar
    39    31    32   ar
    40    32    27   ar
    41    12     2   ar
    42    20    15   ar
    43    10     4   ar
    44    25    26    1
@<TRIPOS>MOLECULE
*****
 41 44 0 0 0
SMALL
GASTEIGER

@<TRIPOS>ATOM
      1 C         140.7778  140.5829  163.1971 C.3     1  UNL1        0.0800
      2 C         140.4532  140.5150  164.6600 C.ar    1  UNL1        0.0374
      3 C         140.6704  141.7154  165.5329 C.ar    1  UNL1        0.0023
      4 C         140.3459  141.6475  166.9958 C.ar    1  UNL1        0.0181
      5 C         140.5630  142.8479  167.8687 C.ar    1  UNL1        0.0082
      6 C         140.2385  142.7800  169.3315 C.ar    1  UNL1        0.0347
      7 BR        140.4556  143.9804  170.2045 Br      1  UNL1       -0.0490
      8 C         139.6968  141.5117  169.9216 C.ar    1  UNL1        0.0082
      9 C         139.4796  140.3114  169.0487 C.ar    1  UNL1        0.0197
     10 C         139.8042  140.3793  167.5858 C.ar    1  UNL1        0.0844
     11 N         139.5870  139.1789  166.7129 N.ar    1  UNL1       -0.2119
     12 C         139.9116  139.2468  165.2500 C.ar    1  UNL1        0.2211
     13 O         139.6944  138.0464  164.3771 O.3     1  UNL1       -0.4563
     14 C         140.6812  136.9168  164.3962 C.3     1  UNL1        0.2542
     15 C         141.9241  139.7881  162.6455 C.ar    1  UNL1        0.0148
     16 C         143.2850  139.9053  163.2653 C.ar    1  UNL1       -0.0014
     17 C         144.4313  139.1105  162.7137 C.ar    1  UNL1        0.0029
     18 C         144.2167  138.1985  161.5422 C.ar    1  UNL1        0.0392
     19 C         142.8558  138.0814  160.9224 C.ar    1  UNL1        0.1657
     20 C         141.7095  138.8762  161.4740 C.ar    1  UNL1        0.1702
     21 F         140.3486  138.7590  160.8542 F       1  UNL1       -0.2013
     22 O         142.6413  137.1694  159.7510 O.3     1  UNL1       -0.4692
     23 C         142.6100  137.7300  158.3600 C.3     1  UNL1        0.2526
     24 C         139.9559  141.4455  162.2858 C.3     1  UNL1        0.1189
     25 O         138.7527  140.5948  162.5656 O.3     1  UNL1       -0.3819
     26 H         137.9922  140.9373  162.0703 H       1  UNL1        0.2107
     27 C         142.9724  143.9678  162.8235 C.ar    1  UNL1        0.2249
     28 C         141.7691  143.1171  163.1033 C.ar    1  UNL1        0.0587
     29 C         141.1592  142.2962  162.0059 C.ar    1  UNL1        0.0426
     30 C         141.7527  142.3262  160.6287 C.ar    1  UNL1        0.1562
     31 C         142.9560  143.1769  160.3488 C.ar    1  UNL1        0.1385
     32 N         143.5658  143.9977  161.4462 N.ar    1  UNL1       -0.2070
     33 C         144.3400  144.1168  165.0274 C.3     1  UNL1        0.2542
     34 O         143.5822  144.7887  163.9209 O.3     1  UNL1       -0.4561
     35 O         141.1429  141.5053  159.5312 O.3     1  UNL1       -0.4701
     36 C         142.1836  141.4162  158.4546 C.3     1  UNL1        0.2525
     37 C         139.1341  142.3081  161.3745 C.3     1  UNL1        0.0492
     38 C         138.0151  143.1364  161.9331 C.3     1  UNL1        0.0750
     39 N         138.3056  144.2042  162.9457 N.3     1  UNL1       -0.2702
     40 C         137.8492  144.0363  164.3646 C.3     1  UNL1        0.0897
     41 C         139.0526  145.4399  162.5393 C.3     1  UNL1        0.0897
@<TRIPOS>BOND
     1    33    34    1
     2    34    27    1
     3    27    28   ar
     4    28    29   ar
     5    29    24    1
     6    24    25    1
     7    24    37    1
     8    37    38    1
     9    38    39    1
    10    39    40    1
    11    39    41    1
    12    24     1    1
    13     1     2    1
    14     2     3   ar
    15     3     4   ar
    16     4     5   ar
    17     5     6   ar
    18     6     7    1
    19     6     8   ar
    20     8     9   ar
    21     9    10   ar
    22    10    11   ar
    23    11    12   ar
    24    12    13    1
    25    13    14    1
    26     1    15    1
    27    15    16   ar
    28    16    17   ar
    29    17    18   ar
    30    18    19   ar
    31    19    22    1
    32    22    23    1
    33    19    20   ar
    34    20    21    1
    35    29    30   ar
    36    30    35    1
    37    35    36    1
    38    30    31   ar
    39    31    32   ar
    40    32    27   ar
    41    12     2   ar
    42    20    15   ar
    43    10     4   ar
    44    25    26    1
@<TRIPOS>MOLECULE
*****
 41 44 0 0 0
SMALL
GASTEIGER

@<TRIPOS>ATOM
      1 C         141.5670  141.1570  163.2731 C.3     1  UNL1        0.0800
      2 C         142.0432  141.4891  164.6563 C.ar    1  UNL1        0.0374
      3 C         141.3219  140.9378  165.8503 C.ar    1  UNL1        0.0023
      4 C         141.7980  141.2699  167.2335 C.ar    1  UNL1        0.0181
      5 C         141.0767  140.7186  168.4275 C.ar    1  UNL1        0.0082
      6 C         141.5528  141.0507  169.8106 C.ar    1  UNL1        0.0347
      7 BR        140.8315  140.4994  171.0047 Br      1  UNL1       -0.0490
      8 C         142.7503  141.9341  169.9996 C.ar    1  UNL1        0.0082
      9 C         143.4716  142.4854  168.8056 C.ar    1  UNL1        0.0197
     10 C         142.9954  142.1533  167.4225 C.ar    1  UNL1        0.0844
     11 N         143.7168  142.7046  166.2284 N.ar    1  UNL1       -0.2119
     12 C         143.2406  142.3725  164.8453 C.ar    1  UNL1        0.2211
     13 O         143.9620  142.9238  163.6512 O.3     1  UNL1       -0.4563
     14 C         143.9770  144.4027  163.4009 C.3     1  UNL1        0.2542
     15 C         142.3954  140.2755  162.3862 C.ar    1  UNL1        0.0148
     16 C         142.7355  138.8809  162.8215 C.ar    1  UNL1       -0.0014
     17 C         143.5639  137.9994  161.9346 C.ar    1  UNL1        0.0029
     18 C         144.0523  138.5124  160.6123 C.ar    1  UNL1        0.0392
     19 C         143.7122  139.9070  160.1770 C.ar    1  UNL1        0.1657
     20 C         142.8837  140.7885  161.0640 C.ar    1  UNL1        0.1702
     21 F         142.5436  142.1831  160.6287 F       1  UNL1       -0.2013
     22 O         144.2005  140.4200  158.8548 O.3     1  UNL1       -0.4692
     23 C         143.5171  139.9982  157.5880 C.3     1  UNL1        0.2526
     24 C         140.2625  141.7065  162.7769 C.3     1  UNL1        0.1189
     25 O         140.8547  143.0843  162.7456 O.3     1  UNL1       -0.3819
     26 H         140.1870  143.7163  162.4363 H       1  UNL1        0.2107
     27 C         138.7529  138.3040  164.1532 C.ar    1  UNL1        0.2249
     28 C         139.3451  139.6818  164.1218 C.ar    1  UNL1        0.0587
     29 C         139.6702  140.3287  162.8082 C.ar    1  UNL1        0.0426
     30 C         139.4031  139.5979  161.5258 C.ar    1  UNL1        0.1562
     31 C         138.8109  138.2201  161.5572 C.ar    1  UNL1        0.1385
     32 N         138.4858  137.5732  162.8708 N.ar    1  UNL1       -0.2070
     33 C         137.9181  138.4886  166.6066 C.3     1  UNL1        0.2542
     34 O         138.4278  137.6571  165.4669 O.3     1  UNL1       -0.4561
     35 O         139.7282  140.2448  160.2121 O.3     1  UNL1       -0.4701
     36 C         140.1020  139.1283  159.2828 C.3     1  UNL1        0.2525
     37 C         138.9579  142.2560  162.2807 C.3     1  UNL1        0.0492
     38 C         138.1006  143.0874  163.1883 C.3     1  UNL1        0.0750
     39 N         138.5585  144.4521  163.6102 N.3     1  UNL1       -0.2702
     40 C         138.8899  145.4855  162.5747 C.3     1  UNL1        0.0897
     41 C         138.6849  144.7834  165.0678 C.3     1  UNL1        0.0897
@<TRIPOS>BOND
     1    33    34    1
     2    34    27    1
     3    27    28   ar
     4    28    29   ar
     5    29    24    1
     6    24    25    1
     7    24    37    1
     8    37    38    1
     9    38    39    1
    10    39    40    1
    11    39    41    1
    12    24     1    1
    13     1     2    1
    14     2     3   ar
    15     3     4   ar
    16     4     5   ar
    17     5     6   ar
    18     6     7    1
    19     6     8   ar
    20     8     9   ar
    21     9    10   ar
    22    10    11   ar
    23    11    12   ar
    24    12    13    1
    25    13    14    1
    26     1    15    1
    27    15    16   ar
    28    16    17   ar
    29    17    18   ar
    30    18    19   ar
    31    19    22    1
    32    22    23    1
    33    19    20   ar
    34    20    21    1
    35    29    30   ar
    36    30    35    1
    37    35    36    1
    38    30    31   ar
    39    31    32   ar
    40    32    27   ar
    41    12     2   ar
    42    20    15   ar
    43    10     4   ar
    44    25    26    1
@<TRIPOS>MOLECULE
*****
 41 44 0 0 0
SMALL
GASTEIGER

@<TRIPOS>ATOM
      1 C         142.3700  141.3797  162.9571 C.3     1  UNL1        0.0800
      2 C         142.0246  142.2987  161.8229 C.ar    1  UNL1        0.0374
      3 C         140.9499  141.9167  160.8488 C.ar    1  UNL1        0.0023
      4 C         140.6045  142.8357  159.7146 C.ar    1  UNL1        0.0181
      5 C         139.5298  142.4537  158.7404 C.ar    1  UNL1        0.0082
      6 C         139.1844  143.3726  157.6063 C.ar    1  UNL1        0.0347
      7 BR        138.1097  142.9906  156.6321 Br      1  UNL1       -0.0490
      8 C         139.9138  144.6736  157.4464 C.ar    1  UNL1        0.0082
      9 C         140.9884  145.0556  158.4206 C.ar    1  UNL1        0.0197
     10 C         141.3338  144.1366  159.5547 C.ar    1  UNL1        0.0844
     11 N         142.4086  144.5186  160.5289 N.ar    1  UNL1       -0.2119
     12 C         142.7539  143.5997  161.6630 C.ar    1  UNL1        0.2211
     13 O         143.8287  143.9816  162.6373 O.3     1  UNL1       -0.4563
     14 C         143.6222  145.1425  163.5646 C.3     1  UNL1        0.2542
     15 C         141.9505  141.7237  164.3555 C.ar    1  UNL1        0.0148
     16 C         140.4941  141.7747  164.7106 C.ar    1  UNL1       -0.0014
     17 C         140.0746  142.1187  166.1090 C.ar    1  UNL1        0.0029
     18 C         141.1116  142.4117  167.1525 C.ar    1  UNL1        0.0392
     19 C         142.5681  142.3608  166.7974 C.ar    1  UNL1        0.1657
     20 C         142.9875  142.0168  165.3989 C.ar    1  UNL1        0.1702
     21 F         144.4440  141.9658  165.0438 F       1  UNL1       -0.2013
     22 O         143.6051  142.6539  167.8408 O.3     1  UNL1       -0.4692
     23 C         143.3725  142.2448  169.2650 C.3     1  UNL1        0.2526
     24 C         143.1349  140.1168  162.6927 C.3     1  UNL1        0.1189
     25 O         144.3140  140.9257  162.2396 O.3     1  UNL1       -0.3819
     26 H         145.0345  140.3301  161.9808 H       1  UNL1        0.2107
     27 C         139.5375  138.4420  162.7557 C.ar    1  UNL1        0.2249
     28 C         140.7166  139.2510  162.3026 C.ar    1  UNL1        0.0587
     29 C         141.9558  139.3078  163.1458 C.ar    1  UNL1        0.0426
     30 C         142.0158  138.5557  164.4422 C.ar    1  UNL1        0.1562
     31 C         140.8367  137.7467  164.8953 C.ar    1  UNL1        0.1385
     32 N         139.5976  137.6899  164.0520 N.ar    1  UNL1       -0.2070
     33 C         137.8570  139.5964  161.1452 C.3     1  UNL1        0.2542
     34 O         138.2983  138.3852  161.9123 O.3     1  UNL1       -0.4561
     35 O         143.2551  138.6125  165.2856 O.3     1  UNL1       -0.4701
     36 C         142.7849  138.7762  166.7006 C.3     1  UNL1        0.2525
     37 C         143.8998  138.8538  162.4284 C.3     1  UNL1        0.0492
     38 C         144.4478  138.5816  161.0588 C.3     1  UNL1        0.0750
     39 N         143.6030  138.8435  159.8473 N.3     1  UNL1       -0.2702
     40 C         143.7847  140.1110  159.0660 C.3     1  UNL1        0.0897
     41 C         142.5765  137.8378  159.4171 C.3     1  UNL1        0.0897
@<TRIPOS>BOND
     1    33    34    1
     2    34    27    1
     3    27    28   ar
     4    28    29   ar
     5    29    24    1
     6    24    25    1
     7    24    37    1
     8    37    38    1
     9    38    39    1
    10    39    40    1
    11    39    41    1
    12    24     1    1
    13     1     2    1
    14     2     3   ar
    15     3     4   ar
    16     4     5   ar
    17     5     6   ar
    18     6     7    1
    19     6     8   ar
    20     8     9   ar
    21     9    10   ar
    22    10    11   ar
    23    11    12   ar
    24    12    13    1
    25    13    14    1
    26     1    15    1
    27    15    16   ar
    28    16    17   ar
    29    17    18   ar
    30    18    19   ar
    31    19    22    1
    32    22    23    1
    33    19    20   ar
    34    20    21    1
    35    29    30   ar
    36    30    35    1
    37    35    36    1
    38    30    31   ar
    39    31    32   ar
    40    32    27   ar
    41    12     2   ar
    42    20    15   ar
    43    10     4   ar
    44    25    26    1
@<TRIPOS>MOLECULE
*****
 41 44 0 0 0
SMALL
GASTEIGER

@<TRIPOS>ATOM
      1 C         141.4811  141.5614  163.8220 C.3     1  UNL1        0.0800
      2 C         142.3606  141.8955  162.6537 C.ar    1  UNL1        0.0374
      3 C         142.3065  141.0581  161.4104 C.ar    1  UNL1        0.0023
      4 C         143.1860  141.3923  160.2421 C.ar    1  UNL1        0.0181
      5 C         143.1319  140.5549  158.9989 C.ar    1  UNL1        0.0082
      6 C         144.0113  140.8891  157.8307 C.ar    1  UNL1        0.0347
      7 BR        143.9572  140.0516  156.5873 Br      1  UNL1       -0.0490
      8 C         144.9449  142.0607  157.9057 C.ar    1  UNL1        0.0082
      9 C         144.9991  142.8981  159.1489 C.ar    1  UNL1        0.0197
     10 C         144.1196  142.5639  160.3172 C.ar    1  UNL1        0.0844
     11 N         144.1737  143.4014  161.5605 N.ar    1  UNL1       -0.2119
     12 C         143.2942  143.0672  162.7287 C.ar    1  UNL1        0.2211
     13 O         143.3483  143.9047  163.9721 O.3     1  UNL1       -0.4563
     14 C         144.4351  143.6796  164.9812 C.3     1  UNL1        0.2542
     15 C         142.0190  140.7376  164.9542 C.ar    1  UNL1        0.0148
     16 C         142.5373  139.3540  164.6950 C.ar    1  UNL1       -0.0014
     17 C         143.0752  138.5302  165.8272 C.ar    1  UNL1        0.0029
     18 C         143.0948  139.0900  167.2188 C.ar    1  UNL1        0.0392
     19 C         142.5764  140.4735  167.4780 C.ar    1  UNL1        0.1657
     20 C         142.0385  141.2973  166.3457 C.ar    1  UNL1        0.1702
     21 F         141.5202  142.6808  166.6050 F       1  UNL1       -0.2013
     22 O         142.5960  141.0332  168.8695 O.3     1  UNL1       -0.4692
     23 C         143.5004  142.1824  169.2029 C.3     1  UNL1        0.2526
     24 C         140.0637  142.0510  163.8580 C.3     1  UNL1        0.1189
     25 O         140.5541  143.4576  164.0341 O.3     1  UNL1       -0.3819
     26 H         139.7957  144.0593  164.0940 H       1  UNL1        0.2107
     27 C         139.1567  138.5809  162.1593 C.ar    1  UNL1        0.2249
     28 C         139.6471  139.9875  162.3354 C.ar    1  UNL1        0.0587
     29 C         139.5733  140.6444  163.6819 C.ar    1  UNL1        0.0426
     30 C         139.0092  139.8948  164.8522 C.ar    1  UNL1        0.1562
     31 C         138.5188  138.4882  164.6761 C.ar    1  UNL1        0.1385
     32 N         138.5925  137.8313  163.3297 N.ar    1  UNL1       -0.2070
     33 C         139.7668  138.6839  159.6360 C.3     1  UNL1        0.2542
     34 O         139.2304  137.9240  160.8128 O.3     1  UNL1       -0.4561
     35 O         138.9354  140.5517  166.1987 O.3     1  UNL1       -0.4701
     36 C         138.9448  139.4377  167.2032 C.3     1  UNL1        0.2525
     37 C         138.6464  142.5407  163.8940 C.3     1  UNL1        0.0492
     38 C         138.0544  143.2132  162.6909 C.3     1  UNL1        0.0750
     39 N         138.9281  144.0206  161.7772 N.3     1  UNL1       -0.2702
     40 C         139.2162  145.4586  162.0922 C.3     1  UNL1        0.0897
     41 C         139.5138  143.3900  160.5486 C.3     1  UNL1        0.0897
@<TRIPOS>BOND
     1    33    34    1
     2    34    27    1
     3    27    28   ar
     4    28    29   ar
     5    29    24    1
     6    24    25    1
     7    24    37    1
     8    37    38    1
     9    38    39    1
    10    39    40    1
    11    39    41    1
    12    24     1    1
    13     1     2    1
    14     2     3   ar
    15     3     4   ar
    16     4     5   ar
    17     5     6   ar
    18     6     7    1
    19     6     8   ar
    20     8     9   ar
    21     9    10   ar
    22    10    11   ar
    23    11    12   ar
    24    12    13    1
    25    13    14    1
    26     1    15    1
    27    15    16   ar
    28    16    17   ar
    29    17    18   ar
    30    18    19   ar
    31    19    22    1
    32    22    23    1
    33    19    20   ar
    34    20    21    1
    35    29    30   ar
    36    30    35    1
    37    35    36    1
    38    30    31   ar
    39    31    32   ar
    40    32    27   ar
    41    12     2   ar
    42    20    15   ar
    43    10     4   ar
    44    25    26    1
@<TRIPOS>MOLECULE
*****
 41 44 0 0 0
SMALL
GASTEIGER

@<TRIPOS>ATOM
      1 C         139.4930  140.7951  164.7148 C.3     1  UNL1        0.0800
      2 C         139.6859  140.7750  166.2023 C.ar    1  UNL1        0.0374
      3 C         140.7236  141.6534  166.8359 C.ar    1  UNL1        0.0023
      4 C         140.9164  141.6334  168.3234 C.ar    1  UNL1        0.0181
      5 C         141.9541  142.5118  168.9570 C.ar    1  UNL1        0.0082
      6 C         142.1469  142.4918  170.4444 C.ar    1  UNL1        0.0347
      7 BR        143.1847  143.3702  171.0781 Br      1  UNL1       -0.0490
      8 C         141.3020  141.5933  171.2981 C.ar    1  UNL1        0.0082
      9 C         140.2643  140.7149  170.6645 C.ar    1  UNL1        0.0197
     10 C         140.0715  140.7350  169.1771 C.ar    1  UNL1        0.0844
     11 N         139.0338  139.8565  168.5434 N.ar    1  UNL1       -0.2119
     12 C         138.8410  139.8766  167.0561 C.ar    1  UNL1        0.2211
     13 O         137.8032  138.9982  166.4224 O.3     1  UNL1       -0.4563
     14 C         137.7326  137.5431  166.7797 C.3     1  UNL1        0.2542
     15 C         139.2574  142.0961  164.0065 C.ar    1  UNL1        0.0148
     16 C         137.8681  142.4864  163.5973 C.ar    1  UNL1       -0.0014
     17 C         137.6325  143.7875  162.8890 C.ar    1  UNL1        0.0029
     18 C         138.7862  144.6983  162.5899 C.ar    1  UNL1        0.0392
     19 C         140.1755  144.3080  162.9991 C.ar    1  UNL1        0.1657
     20 C         140.4111  143.0068  163.7075 C.ar    1  UNL1        0.1702
     21 F         141.8004  142.6165  164.1167 F       1  UNL1       -0.2013
     22 O         141.3292  145.2187  162.7001 O.3     1  UNL1       -0.4692
     23 C         142.3836  145.4595  163.7394 C.3     1  UNL1        0.2526
     24 C         139.5358  139.5140  163.9357 C.3     1  UNL1        0.1189
     25 O         138.0548  139.5997  163.7135 O.3     1  UNL1       -0.3819
     26 H         137.7617  138.8371  163.1906 H       1  UNL1        0.2107
     27 C         143.0319  138.8227  165.6819 C.ar    1  UNL1        0.2249
     28 C         141.5510  138.9085  165.4596 C.ar    1  UNL1        0.0587
     29 C         141.0167  139.4283  164.1580 C.ar    1  UNL1        0.0426
     30 C         141.9635  139.8623  163.0785 C.ar    1  UNL1        0.1562
     31 C         143.4445  139.7766  163.3008 C.ar    1  UNL1        0.1385
     32 N         143.9787  139.2568  164.6024 N.ar    1  UNL1       -0.2070
     33 C         144.6561  137.2724  166.9890 C.3     1  UNL1        0.2542
     34 O         143.5661  138.3029  166.9836 O.3     1  UNL1       -0.4561
     35 O         141.4293  140.3822  161.7768 O.3     1  UNL1       -0.4701
     36 C         142.5957  141.0089  161.0721 C.3     1  UNL1        0.2525
     37 C         139.5785  138.2329  163.1566 C.3     1  UNL1        0.0492
     38 C         138.5516  137.9652  162.0965 C.3     1  UNL1        0.0750
     39 N         138.6006  138.7152  160.7984 N.3     1  UNL1       -0.2702
     40 C         139.6608  138.3950  159.7868 C.3     1  UNL1        0.0897
     41 C         137.5893  139.7854  160.5119 C.3     1  UNL1        0.0897
@<TRIPOS>BOND
     1    33    34    1
     2    34    27    1
     3    27    28   ar
     4    28    29   ar
     5    29    24    1
     6    24    25    1
     7    24    37    1
     8    37    38    1
     9    38    39    1
    10    39    40    1
    11    39    41    1
    12    24     1    1
    13     1     2    1
    14     2     3   ar
    15     3     4   ar
    16     4     5   ar
    17     5     6   ar
    18     6     7    1
    19     6     8   ar
    20     8     9   ar
    21     9    10   ar
    22    10    11   ar
    23    11    12   ar
    24    12    13    1
    25    13    14    1
    26     1    15    1
    27    15    16   ar
    28    16    17   ar
    29    17    18   ar
    30    18    19   ar
    31    19    22    1
    32    22    23    1
    33    19    20   ar
    34    20    21    1
    35    29    30   ar
    36    30    35    1
    37    35    36    1
    38    30    31   ar
    39    31    32   ar
    40    32    27   ar
    41    12     2   ar
    42    20    15   ar
    43    10     4   ar
    44    25    26    1
@<TRIPOS>MOLECULE
*****
 41 44 0 0 0
SMALL
GASTEIGER

@<TRIPOS>ATOM
      1 C         141.8587  141.9643  162.7580 C.3     1  UNL1        0.0800
      2 C         142.1791  142.0740  164.2193 C.ar    1  UNL1        0.0374
      3 C         141.1328  141.7466  165.2431 C.ar    1  UNL1        0.0023
      4 C         141.4532  141.8563  166.7044 C.ar    1  UNL1        0.0181
      5 C         140.4070  141.5289  167.7282 C.ar    1  UNL1        0.0082
      6 C         140.7273  141.6386  169.1895 C.ar    1  UNL1        0.0347
      7 BR        139.6811  141.3112  170.2133 Br      1  UNL1       -0.0490
      8 C         142.0939  142.0757  169.6269 C.ar    1  UNL1        0.0082
      9 C         143.1401  142.4031  168.6031 C.ar    1  UNL1        0.0197
     10 C         142.8198  142.2934  167.1419 C.ar    1  UNL1        0.0844
     11 N         143.8660  142.6208  166.1180 N.ar    1  UNL1       -0.2119
     12 C         143.5457  142.5111  164.6568 C.ar    1  UNL1        0.2211
     13 O         144.5919  142.8385  163.6329 O.3     1  UNL1       -0.4563
     14 C         145.5940  141.7992  163.2258 C.3     1  UNL1        0.2542
     15 C         142.0912  140.6712  162.0342 C.ar    1  UNL1        0.0148
     16 C         141.5330  139.3925  162.5850 C.ar    1  UNL1       -0.0014
     17 C         141.7655  138.0995  161.8612 C.ar    1  UNL1        0.0029
     18 C         142.5563  138.0850  160.5866 C.ar    1  UNL1        0.0392
     19 C         143.1145  139.3637  160.0359 C.ar    1  UNL1        0.1657
     20 C         142.8820  140.6568  160.7597 C.ar    1  UNL1        0.1702
     21 F         143.4402  141.9355  160.2089 F       1  UNL1       -0.2013
     22 O         143.9052  139.3493  158.7613 O.3     1  UNL1       -0.4692
     23 C         143.2085  139.5235  157.4445 C.3     1  UNL1        0.2526
     24 C         141.3059  143.1477  162.0205 C.3     1  UNL1        0.1189
     25 O         142.6994  143.6450  161.7739 O.3     1  UNL1       -0.3819
     26 H         142.6627  144.4737  161.2711 H       1  UNL1        0.2107
     27 C         137.9929  140.9810  161.7392 C.ar    1  UNL1        0.2249
     28 C         139.3864  141.4783  161.4927 C.ar    1  UNL1        0.0587
     29 C         139.9124  142.6504  162.2670 C.ar    1  UNL1        0.0426
     30 C         139.0449  143.3251  163.2879 C.ar    1  UNL1        0.1562
     31 C         137.6514  142.8277  163.5344 C.ar    1  UNL1        0.1385
     32 N         137.1254  141.6557  162.7601 N.ar    1  UNL1       -0.2070
     33 C         137.5964  138.4225  161.5226 C.3     1  UNL1        0.2542
     34 O         137.4669  139.8089  160.9649 O.3     1  UNL1       -0.4561
     35 O         139.5709  144.4972  164.0622 O.3     1  UNL1       -0.4701
     36 C         138.6011  144.7198  165.1847 C.3     1  UNL1        0.2525
     37 C         140.7531  144.3311  161.2830 C.3     1  UNL1        0.0492
     38 C         141.4974  144.8991  160.1110 C.3     1  UNL1        0.0750
     39 N         140.9587  144.7208  158.7225 N.3     1  UNL1       -0.2702
     40 C         141.6132  145.4206  157.5685 C.3     1  UNL1        0.0897
     41 C         139.7654  143.8426  158.4880 C.3     1  UNL1        0.0897
@<TRIPOS>BOND
     1    33    34    1
     2    34    27    1
     3    27    28   ar
     4    28    29   ar
     5    29    24    1
     6    24    25    1
     7    24    37    1
     8    37    38    1
     9    38    39    1
    10    39    40    1
    11    39    41    1
    12    24     1    1
    13     1     2    1
    14     2     3   ar
    15     3     4   ar
    16     4     5   ar
    17     5     6   ar
    18     6     7    1
    19     6     8   ar
    20     8     9   ar
    21     9    10   ar
    22    10    11   ar
    23    11    12   ar
    24    12    13    1
    25    13    14    1
    26     1    15    1
    27    15    16   ar
    28    16    17   ar
    29    17    18   ar
    30    18    19   ar
    31    19    22    1
    32    22    23    1
    33    19    20   ar
    34    20    21    1
    35    29    30   ar
    36    30    35    1
    37    35    36    1
    38    30    31   ar
    39    31    32   ar
    40    32    27   ar
    41    12     2   ar
    42    20    15   ar
    43    10     4   ar
    44    25    26    1
