@<TRIPOS>MOLECULE
*****
 36 39 0 0 0
SMALL
GASTEIGER

@<TRIPOS>ATOM
      1 C         142.7736  138.9092  161.5793 C.ar    1  UNL1        0.0393
      2 C         143.8136  139.0418  162.6521 C.ar    1  UNL1        0.0779
      3 N         143.1760  138.6856  163.9623 N.ar    1  UNL1       -0.3177
      4 C         141.7420  138.3328  163.6992 C.ar    1  UNL1        0.0604
      5 C         140.6305  137.9036  164.6105 C.ar    1  UNL1        0.0172
      6 C         139.2704  137.6126  164.0490 C.ar    1  UNL1        0.0015
      7 C         139.0217  137.7508  162.5762 C.ar    1  UNL1        0.0001
      8 C         140.1332  138.1800  161.6649 C.ar    1  UNL1        0.0015
      9 C         141.4933  138.4710  162.2265 C.ar    1  UNL1        0.0188
     10 N         143.0641  138.0204  159.1553 N.2     1  UNL1       -0.1636
     11 C         142.9781  139.1690  160.1162 C.2     1  UNL1        0.1204
     12 N         143.2686  138.2803  157.6922 N.pl3   1  UNL1       -0.1361
     13 H         143.6592  139.1332  157.3936 H       1  UNL1        0.1966
     14 S         142.8778  137.2406  156.6841 S.O2    1  UNL1        0.0877
     15 O         141.4820  137.2328  157.2330 O.2     1  UNL1       -0.1487
     16 O         144.2738  137.2484  156.1350 O.2     1  UNL1       -0.1487
     17 C         141.3152  133.0817  152.6515 C.3     1  UNL1        0.0310
     18 C         141.7058  134.1214  153.6596 C.ar    1  UNL1       -0.0218
     19 C         141.9558  135.5341  153.2217 C.ar    1  UNL1       -0.0029
     20 C         142.3465  136.5738  154.2298 C.ar    1  UNL1        0.0199
     21 C         142.4872  136.2009  155.6759 C.ar    1  UNL1        0.1266
     22 C         142.2372  134.7882  156.1138 C.ar    1  UNL1        0.0199
     23 C         141.8465  133.7484  155.1057 C.ar    1  UNL1       -0.0029
     24 C         143.8534  138.6827  165.3006 C.3     1  UNL1        0.1920
     25 C         143.1651  139.2823  166.4910 C.2     1  UNL1        0.2493
     26 O         143.2519  138.6059  167.8270 O.2     1  UNL1       -0.2727
     27 N         142.3900  140.5582  166.3452 N.am    1  UNL1       -0.2806
     28 H         142.3330  141.0021  165.4683 H       1  UNL1        0.1550
     29 C         141.7018  141.1577  167.5355 C.ar    1  UNL1        0.0783
     30 C         142.3246  142.3156  168.2576 C.ar    1  UNL1        0.0193
     31 C         141.6363  142.9150  169.4479 C.ar    1  UNL1        0.0311
     32 C         140.3251  142.3566  169.9162 C.ar    1  UNL1        0.1425
     33 F         139.6369  142.9561  171.1066 F       1  UNL1       -0.2041
     34 C         139.7024  141.1987  169.1941 C.ar    1  UNL1        0.0605
     35 C         140.3907  140.5993  168.0037 C.ar    1  UNL1        0.1557
     36 F         139.7679  139.4414  167.2816 F       1  UNL1       -0.2028
@<TRIPOS>BOND
     1    17    18    1
     2    18    19   ar
     3    19    20   ar
     4    20    21   ar
     5    21    14    1
     6    14    15    2
     7    14    16    2
     8    14    12    1
     9    12    10    1
    10    10    11    2
    11    11     1    1
    12     1     2   ar
    13     2     3   ar
    14     3    24    1
    15    24    25    1
    16    25    26    2
    17    25    27   am
    18    27    29    1
    19    29    30   ar
    20    30    31   ar
    21    31    32   ar
    22    32    33    1
    23    32    34   ar
    24    34    35   ar
    25    35    36    1
    26     3     4   ar
    27     4     5   ar
    28     5     6   ar
    29     6     7   ar
    30     7     8   ar
    31     8     9   ar
    32    21    22   ar
    33    22    23   ar
    34    23    18   ar
    35     9     1   ar
    36    35    29   ar
    37     9     4   ar
    38    12    13    1
    39    27    28    1
@<TRIPOS>MOLECULE
*****
 36 39 0 0 0
SMALL
GASTEIGER

@<TRIPOS>ATOM
      1 C         142.4126  139.0632  161.8211 C.ar    1  UNL1        0.0393
      2 C         142.0883  138.2232  163.0208 C.ar    1  UNL1        0.0779
      3 N         142.9527  138.6841  164.1567 N.ar    1  UNL1       -0.3177
      4 C         143.8113  139.8089  163.6590 C.ar    1  UNL1        0.0604
      5 C         144.8540  140.6501  164.3338 C.ar    1  UNL1        0.0172
      6 C         145.5628  141.7255  163.5651 C.ar    1  UNL1        0.0015
      7 C         145.2289  141.9598  162.1216 C.ar    1  UNL1        0.0001
      8 C         144.1863  141.1187  161.4468 C.ar    1  UNL1        0.0015
      9 C         143.4775  140.0432  162.2155 C.ar    1  UNL1        0.0188
     10 N         142.5349  138.2914  159.3433 N.2     1  UNL1       -0.1636
     11 C         141.7826  138.9441  160.4650 C.2     1  UNL1        0.1204
     12 N         141.9049  138.1723  157.9872 N.pl3   1  UNL1       -0.1361
     13 H         141.3618  138.9117  157.6300 H       1  UNL1        0.1966
     14 S         142.1024  136.9266  157.1753 S.O2    1  UNL1        0.0877
     15 O         143.2939  136.5691  158.0135 O.2     1  UNL1       -0.1487
     16 O         140.9108  137.2840  156.3371 O.2     1  UNL1       -0.1487
     17 C         142.8923  131.9437  153.9277 C.3     1  UNL1        0.0310
     18 C         142.6948  133.1894  154.7396 C.ar    1  UNL1       -0.0218
     19 C         141.5481  134.1078  154.4372 C.ar    1  UNL1       -0.0029
     20 C         141.3506  135.3535  155.2491 C.ar    1  UNL1        0.0199
     21 C         142.2998  135.6809  156.3634 C.ar    1  UNL1        0.1266
     22 C         143.4466  134.7624  156.6658 C.ar    1  UNL1        0.0199
     23 C         143.6441  133.5166  155.8540 C.ar    1  UNL1       -0.0029
     24 C         142.9578  138.1193  165.5463 C.3     1  UNL1        0.1920
     25 C         142.4950  138.9600  166.6992 C.2     1  UNL1        0.2493
     26 O         143.2806  138.9785  167.9769 O.2     1  UNL1       -0.2727
     27 N         141.2466  139.7822  166.5745 N.am    1  UNL1       -0.2806
     28 H         140.7309  139.7700  165.7359 H       1  UNL1        0.1550
     29 C         140.7839  140.6228  167.7274 C.ar    1  UNL1        0.0783
     30 C         139.7231  140.1066  168.6538 C.ar    1  UNL1        0.0193
     31 C         139.2604  140.9473  169.8067 C.ar    1  UNL1        0.0311
     32 C         139.8586  142.3042  170.0333 C.ar    1  UNL1        0.1425
     33 F         139.3959  143.1448  171.1862 F       1  UNL1       -0.2041
     34 C         140.9194  142.8203  169.1068 C.ar    1  UNL1        0.0605
     35 C         141.3820  141.9796  167.9538 C.ar    1  UNL1        0.1557
     36 F         142.4428  142.4957  167.0274 F       1  UNL1       -0.2028
@<TRIPOS>BOND
     1    17    18    1
     2    18    19   ar
     3    19    20   ar
     4    20    21   ar
     5    21    14    1
     6    14    15    2
     7    14    16    2
     8    14    12    1
     9    12    10    1
    10    10    11    2
    11    11     1    1
    12     1     2   ar
    13     2     3   ar
    14     3    24    1
    15    24    25    1
    16    25    26    2
    17    25    27   am
    18    27    29    1
    19    29    30   ar
    20    30    31   ar
    21    31    32   ar
    22    32    33    1
    23    32    34   ar
    24    34    35   ar
    25    35    36    1
    26     3     4   ar
    27     4     5   ar
    28     5     6   ar
    29     6     7   ar
    30     7     8   ar
    31     8     9   ar
    32    21    22   ar
    33    22    23   ar
    34    23    18   ar
    35     9     1   ar
    36    35    29   ar
    37     9     4   ar
    38    12    13    1
    39    27    28    1
@<TRIPOS>MOLECULE
*****
 36 39 0 0 0
SMALL
GASTEIGER

@<TRIPOS>ATOM
      1 C         143.1005  139.4401  161.5396 C.ar    1  UNL1        0.0393
      2 C         142.6272  138.4267  162.5391 C.ar    1  UNL1        0.0779
      3 N         142.9403  138.9471  163.9106 N.ar    1  UNL1       -0.3177
      4 C         143.6071  140.2821  163.7589 C.ar    1  UNL1        0.0604
      5 C         144.1370  141.2596  164.7657 C.ar    1  UNL1        0.0172
      6 C         144.7659  142.5418  164.3072 C.ar    1  UNL1        0.0015
      7 C         144.8649  142.8465  162.8418 C.ar    1  UNL1        0.0001
      8 C         144.3351  141.8691  161.8350 C.ar    1  UNL1        0.0015
      9 C         143.7062  140.5868  162.2935 C.ar    1  UNL1        0.0188
     10 N         144.1380  139.7356  159.1760 N.2     1  UNL1       -0.1636
     11 C         142.9880  139.3268  160.0482 C.2     1  UNL1        0.1204
     12 N         144.0255  139.6223  157.6846 N.pl3   1  UNL1       -0.1361
     13 H         143.5180  138.8798  157.2842 H       1  UNL1        0.1966
     14 S         144.6864  140.6403  156.8032 S.O2    1  UNL1        0.0877
     15 O         143.9768  141.7381  157.5389 O.2     1  UNL1       -0.1487
     16 O         145.3960  139.5425  156.0673 O.2     1  UNL1       -0.1487
     17 C         147.3302  144.7121  153.2774 C.3     1  UNL1        0.0310
     18 C         146.6693  143.6942  154.1588 C.ar    1  UNL1       -0.0218
     19 C         145.1773  143.5405  154.1390 C.ar    1  UNL1       -0.0029
     20 C         144.5163  142.5226  155.0204 C.ar    1  UNL1        0.0199
     21 C         145.3473  141.6583  155.9217 C.ar    1  UNL1        0.1266
     22 C         146.8393  141.8119  155.9416 C.ar    1  UNL1        0.0199
     23 C         147.5003  142.8299  155.0601 C.ar    1  UNL1       -0.0029
     24 C         142.6393  138.2541  165.2065 C.3     1  UNL1        0.1920
     25 C         142.2413  139.0552  166.4107 C.2     1  UNL1        0.2493
     26 O         143.0769  139.0038  167.6553 O.2     1  UNL1       -0.2727
     27 N         141.0077  139.9076  166.3701 N.am    1  UNL1       -0.2806
     28 H         140.4593  139.9413  165.5532 H       1  UNL1        0.1550
     29 C         140.6098  140.7086  167.5742 C.ar    1  UNL1        0.0783
     30 C         139.7996  140.0720  168.6643 C.ar    1  UNL1        0.0193
     31 C         139.4017  140.8732  169.8684 C.ar    1  UNL1        0.0311
     32 C         139.8141  142.3109  169.9825 C.ar    1  UNL1        0.1425
     33 F         139.4161  143.1119  171.1867 F       1  UNL1       -0.2041
     34 C         140.6243  142.9475  168.8925 C.ar    1  UNL1        0.0605
     35 C         141.0222  142.1463  167.6883 C.ar    1  UNL1        0.1557
     36 F         141.8324  142.7829  166.5982 F       1  UNL1       -0.2028
@<TRIPOS>BOND
     1    17    18    1
     2    18    19   ar
     3    19    20   ar
     4    20    21   ar
     5    21    14    1
     6    14    15    2
     7    14    16    2
     8    14    12    1
     9    12    10    1
    10    10    11    2
    11    11     1    1
    12     1     2   ar
    13     2     3   ar
    14     3    24    1
    15    24    25    1
    16    25    26    2
    17    25    27   am
    18    27    29    1
    19    29    30   ar
    20    30    31   ar
    21    31    32   ar
    22    32    33    1
    23    32    34   ar
    24    34    35   ar
    25    35    36    1
    26     3     4   ar
    27     4     5   ar
    28     5     6   ar
    29     6     7   ar
    30     7     8   ar
    31     8     9   ar
    32    21    22   ar
    33    22    23   ar
    34    23    18   ar
    35     9     1   ar
    36    35    29   ar
    37     9     4   ar
    38    12    13    1
    39    27    28    1
@<TRIPOS>MOLECULE
*****
 36 39 0 0 0
SMALL
GASTEIGER

@<TRIPOS>ATOM
      1 C         142.4293  138.2777  160.9119 C.ar    1  UNL1        0.0393
      2 C         143.1701  137.8766  159.6709 C.ar    1  UNL1        0.0779
      3 N         142.2807  138.1447  158.4932 N.ar    1  UNL1       -0.3177
      4 C         140.9902  138.7115  159.0064 C.ar    1  UNL1        0.0604
      5 C         139.7433  139.1634  158.3056 C.ar    1  UNL1        0.0172
      6 C         138.5884  139.6975  159.0997 C.ar    1  UNL1        0.0015
      7 C         138.6802  139.7797  160.5946 C.ar    1  UNL1        0.0001
      8 C         139.9270  139.3278  161.2954 C.ar    1  UNL1        0.0015
      9 C         141.0820  138.7937  160.5013 C.ar    1  UNL1        0.0188
     10 N         143.3791  139.4181  163.0445 N.2     1  UNL1       -0.1636
     11 C         142.9451  138.1800  162.3171 C.2     1  UNL1        0.1204
     12 N         143.8949  139.3204  164.4497 N.pl3   1  UNL1       -0.1361
     13 H         144.8466  139.1278  164.6124 H       1  UNL1        0.1966
     14 S         142.9607  139.5160  165.6068 S.O2    1  UNL1        0.0877
     15 O         142.9236  138.0328  165.8277 O.2     1  UNL1       -0.1487
     16 O         142.9979  140.9993  165.3859 O.2     1  UNL1       -0.1487
     17 C         139.2238  140.2990  170.2352 C.3     1  UNL1        0.0310
     18 C         140.1580  140.1033  169.0781 C.ar    1  UNL1       -0.0218
     19 C         141.6163  139.8541  169.3254 C.ar    1  UNL1       -0.0029
     20 C         142.5506  139.6583  168.1684 C.ar    1  UNL1        0.0199
     21 C         142.0265  139.7118  166.7639 C.ar    1  UNL1        0.1266
     22 C         140.5682  139.9610  166.5166 C.ar    1  UNL1        0.0199
     23 C         139.6339  140.1567  167.6737 C.ar    1  UNL1       -0.0029
     24 C         142.6218  137.8905  157.0547 C.3     1  UNL1        0.1920
     25 C         143.2735  136.5999  156.6552 C.2     1  UNL1        0.2493
     26 O         144.4320  136.6082  155.7024 O.2     1  UNL1       -0.2727
     27 N         142.7667  135.3010  157.2084 N.am    1  UNL1       -0.2806
     28 H         142.0064  135.2955  157.8338 H       1  UNL1        0.1550
     29 C         143.4185  134.0105  156.8089 C.ar    1  UNL1        0.0783
     30 C         144.3605  133.3225  157.7518 C.ar    1  UNL1        0.0193
     31 C         145.0122  132.0319  157.3521 C.ar    1  UNL1        0.0311
     32 C         144.7219  131.4293  156.0095 C.ar    1  UNL1        0.1425
     33 F         145.3737  130.1388  155.6099 F       1  UNL1       -0.2041
     34 C         143.7799  132.1173  155.0666 C.ar    1  UNL1        0.0605
     35 C         143.1281  133.4079  155.4662 C.ar    1  UNL1        0.1557
     36 F         142.1861  134.0959  154.5233 F       1  UNL1       -0.2028
@<TRIPOS>BOND
     1    17    18    1
     2    18    19   ar
     3    19    20   ar
     4    20    21   ar
     5    21    14    1
     6    14    15    2
     7    14    16    2
     8    14    12    1
     9    12    10    1
    10    10    11    2
    11    11     1    1
    12     1     2   ar
    13     2     3   ar
    14     3    24    1
    15    24    25    1
    16    25    26    2
    17    25    27   am
    18    27    29    1
    19    29    30   ar
    20    30    31   ar
    21    31    32   ar
    22    32    33    1
    23    32    34   ar
    24    34    35   ar
    25    35    36    1
    26     3     4   ar
    27     4     5   ar
    28     5     6   ar
    29     6     7   ar
    30     7     8   ar
    31     8     9   ar
    32    21    22   ar
    33    22    23   ar
    34    23    18   ar
    35     9     1   ar
    36    35    29   ar
    37     9     4   ar
    38    12    13    1
    39    27    28    1
@<TRIPOS>MOLECULE
*****
 36 39 0 0 0
SMALL
GASTEIGER

@<TRIPOS>ATOM
      1 C         141.3614  139.2350  159.9881 C.ar    1  UNL1        0.0393
      2 C         141.3574  138.4121  158.7340 C.ar    1  UNL1        0.0779
      3 N         142.4058  138.9641  157.8142 N.ar    1  UNL1       -0.3177
      4 C         143.0577  140.1282  158.4997 C.ar    1  UNL1        0.0604
      5 C         144.1557  141.0573  158.0741 C.ar    1  UNL1        0.0172
      6 C         144.6081  142.1539  158.9921 C.ar    1  UNL1        0.0015
      7 C         143.9625  142.3213  160.3357 C.ar    1  UNL1        0.0001
      8 C         142.8646  141.3922  160.7613 C.ar    1  UNL1        0.0015
      9 C         142.4122  140.2956  159.8433 C.ar    1  UNL1        0.0188
     10 N         140.1486  137.6448  161.6466 N.2     1  UNL1       -0.1636
     11 C         140.4708  139.0329  161.1781 C.2     1  UNL1        0.1204
     12 N         139.2581  137.4426  162.8366 N.pl3   1  UNL1       -0.1361
     13 H         138.4591  136.8722  162.7624 H       1  UNL1        0.1966
     14 S         139.5849  138.1097  164.1398 S.O2    1  UNL1        0.0877
     15 O         138.4218  139.0389  163.9559 O.2     1  UNL1       -0.1487
     16 O         140.7480  137.1804  164.3237 O.2     1  UNL1       -0.1487
     17 C         140.8926  140.7777  169.3524 C.3     1  UNL1        0.0310
     18 C         140.5657  140.1107  168.0493 C.ar    1  UNL1       -0.0218
     19 C         139.1408  139.7899  167.7077 C.ar    1  UNL1       -0.0029
     20 C         138.8138  139.1229  166.4045 C.ar    1  UNL1        0.0199
     21 C         139.9118  138.7767  165.4429 C.ar    1  UNL1        0.1266
     22 C         141.3367  139.0975  165.7846 C.ar    1  UNL1        0.0199
     23 C         141.6637  139.7645  167.0877 C.ar    1  UNL1       -0.0029
     24 C         142.7432  138.4434  156.4485 C.3     1  UNL1        0.1920
     25 C         143.3690  137.0887  156.2958 C.2     1  UNL1        0.2493
     26 O         144.7421  136.9589  155.7062 O.2     1  UNL1       -0.2727
     27 N         142.6215  135.8637  156.7327 N.am    1  UNL1       -0.2806
     28 H         141.7203  135.9488  157.1197 H       1  UNL1        0.1550
     29 C         143.2473  134.5091  156.5799 C.ar    1  UNL1        0.0783
     30 C         144.0014  133.8979  157.7235 C.ar    1  UNL1        0.0193
     31 C         144.6271  132.5433  157.5707 C.ar    1  UNL1        0.0311
     32 C         144.4989  131.7998  156.2743 C.ar    1  UNL1        0.1425
     33 F         145.1247  130.4451  156.1215 F       1  UNL1       -0.2041
     34 C         143.7448  132.4109  155.1306 C.ar    1  UNL1        0.0605
     35 C         143.1190  133.7656  155.2835 C.ar    1  UNL1        0.1557
     36 F         142.3650  134.3768  154.1398 F       1  UNL1       -0.2028
@<TRIPOS>BOND
     1    17    18    1
     2    18    19   ar
     3    19    20   ar
     4    20    21   ar
     5    21    14    1
     6    14    15    2
     7    14    16    2
     8    14    12    1
     9    12    10    1
    10    10    11    2
    11    11     1    1
    12     1     2   ar
    13     2     3   ar
    14     3    24    1
    15    24    25    1
    16    25    26    2
    17    25    27   am
    18    27    29    1
    19    29    30   ar
    20    30    31   ar
    21    31    32   ar
    22    32    33    1
    23    32    34   ar
    24    34    35   ar
    25    35    36    1
    26     3     4   ar
    27     4     5   ar
    28     5     6   ar
    29     6     7   ar
    30     7     8   ar
    31     8     9   ar
    32    21    22   ar
    33    22    23   ar
    34    23    18   ar
    35     9     1   ar
    36    35    29   ar
    37     9     4   ar
    38    12    13    1
    39    27    28    1
@<TRIPOS>MOLECULE
*****
 36 39 0 0 0
SMALL
GASTEIGER

@<TRIPOS>ATOM
      1 C         142.4023  139.7585  160.5370 C.ar    1  UNL1        0.0393
      2 C         142.9137  140.8996  161.3654 C.ar    1  UNL1        0.0779
      3 N         141.8415  141.2795  162.3431 N.ar    1  UNL1       -0.3177
      4 C         140.6675  140.3732  162.1190 C.ar    1  UNL1        0.0604
      5 C         139.3276  140.2826  162.7871 C.ar    1  UNL1        0.0172
      6 C         138.3343  139.2518  162.3390 C.ar    1  UNL1        0.0015
      7 C         138.6809  138.3117  161.2227 C.ar    1  UNL1        0.0001
      8 C         140.0208  138.4024  160.5546 C.ar    1  UNL1        0.0015
      9 C         141.0141  139.4331  161.0027 C.ar    1  UNL1        0.0188
     10 N         142.5173  138.9103  158.0838 N.2     1  UNL1       -0.1636
     11 C         143.1482  139.0644  159.4360 C.2     1  UNL1        0.1204
     12 N         143.2632  138.2163  156.9829 N.pl3   1  UNL1       -0.1361
     13 H         143.9518  138.7012  156.4731 H       1  UNL1        0.1966
     14 S         142.9598  136.7835  156.6589 S.O2    1  UNL1        0.0877
     15 O         144.3431  136.6161  156.1035 O.2     1  UNL1       -0.1487
     16 O         141.5764  136.9509  157.2143 O.2     1  UNL1       -0.1487
     17 C         141.7461  131.0522  155.3629 C.3     1  UNL1        0.0310
     18 C         142.0495  132.4850  155.6869 C.ar    1  UNL1       -0.0218
     19 C         141.2855  133.5848  155.0111 C.ar    1  UNL1       -0.0029
     20 C         141.5888  135.0176  155.3351 C.ar    1  UNL1        0.0199
     21 C         142.6564  135.3507  156.3349 C.ar    1  UNL1        0.1266
     22 C         143.4205  134.2509  157.0106 C.ar    1  UNL1        0.0199
     23 C         143.1171  132.8180  156.6866 C.ar    1  UNL1       -0.0029
     24 C         141.9281  142.3737  163.3655 C.3     1  UNL1        0.1920
     25 C         141.5447  142.1013  164.7899 C.2     1  UNL1        0.2493
     26 O         140.9465  143.1925  165.6274 O.2     1  UNL1       -0.2727
     27 N         141.7594  140.7377  165.3768 N.am    1  UNL1       -0.2806
     28 H         142.1520  140.0214  164.8271 H       1  UNL1        0.1550
     29 C         141.3759  140.4653  166.8011 C.ar    1  UNL1        0.0783
     30 C         142.4397  140.2391  167.8341 C.ar    1  UNL1        0.0193
     31 C         142.0561  139.9668  169.2584 C.ar    1  UNL1        0.0311
     32 C         140.6088  139.9207  169.6498 C.ar    1  UNL1        0.1425
     33 F         140.2253  139.6484  171.0741 F       1  UNL1       -0.2041
     34 C         139.5450  140.1469  168.6168 C.ar    1  UNL1        0.0605
     35 C         139.9286  140.4193  167.1924 C.ar    1  UNL1        0.1557
     36 F         138.8648  140.6455  166.1593 F       1  UNL1       -0.2028
@<TRIPOS>BOND
     1    17    18    1
     2    18    19   ar
     3    19    20   ar
     4    20    21   ar
     5    21    14    1
     6    14    15    2
     7    14    16    2
     8    14    12    1
     9    12    10    1
    10    10    11    2
    11    11     1    1
    12     1     2   ar
    13     2     3   ar
    14     3    24    1
    15    24    25    1
    16    25    26    2
    17    25    27   am
    18    27    29    1
    19    29    30   ar
    20    30    31   ar
    21    31    32   ar
    22    32    33    1
    23    32    34   ar
    24    34    35   ar
    25    35    36    1
    26     3     4   ar
    27     4     5   ar
    28     5     6   ar
    29     6     7   ar
    30     7     8   ar
    31     8     9   ar
    32    21    22   ar
    33    22    23   ar
    34    23    18   ar
    35     9     1   ar
    36    35    29   ar
    37     9     4   ar
    38    12    13    1
    39    27    28    1
@<TRIPOS>MOLECULE
*****
 36 39 0 0 0
SMALL
GASTEIGER

@<TRIPOS>ATOM
      1 C         142.7266  138.3116  161.3490 C.ar    1  UNL1        0.0393
      2 C         143.7827  138.6756  162.3501 C.ar    1  UNL1        0.0779
      3 N         143.1249  138.8028  163.6922 N.ar    1  UNL1       -0.3177
      4 C         141.6623  138.5175  163.5205 C.ar    1  UNL1        0.0604
      5 C         140.5229  138.4949  164.4957 C.ar    1  UNL1        0.0172
      6 C         139.1373  138.1687  164.0228 C.ar    1  UNL1        0.0015
      7 C         138.8911  137.8652  162.5746 C.ar    1  UNL1        0.0001
      8 C         140.0305  137.8878  161.5993 C.ar    1  UNL1        0.0015
      9 C         141.4161  138.2139  162.0723 C.ar    1  UNL1        0.0188
     10 N         143.1115  139.2558  158.9592 N.2     1  UNL1       -0.1636
     11 C         142.9429  138.0852  159.8820 C.2     1  UNL1        0.1204
     12 N         143.3279  139.0293  157.4923 N.pl3   1  UNL1       -0.1361
     13 H         142.8460  138.3063  157.0295 H       1  UNL1        0.1966
     14 S         144.2785  139.9045  156.7306 S.O2    1  UNL1        0.0877
     15 O         144.8209  138.6989  156.0220 O.2     1  UNL1       -0.1487
     16 O         143.7360  141.1103  157.4392 O.2     1  UNL1       -0.1487
     17 C         148.0809  143.4059  153.6839 C.3     1  UNL1        0.0310
     18 C         147.1303  142.5306  154.4456 C.ar    1  UNL1       -0.0218
     19 C         146.2627  141.5503  153.7132 C.ar    1  UNL1       -0.0029
     20 C         145.3121  140.6750  154.4748 C.ar    1  UNL1        0.0199
     21 C         145.2291  140.7799  155.9689 C.ar    1  UNL1        0.1266
     22 C         146.0967  141.7601  156.7012 C.ar    1  UNL1        0.0199
     23 C         147.0473  142.6355  155.9396 C.ar    1  UNL1       -0.0029
     24 C         143.8095  139.1537  164.9799 C.3     1  UNL1        0.1920
     25 C         143.3157  140.3073  165.8017 C.2     1  UNL1        0.2493
     26 O         143.5614  141.7143  165.3434 O.2     1  UNL1       -0.2727
     27 N         142.5761  140.0540  167.0819 N.am    1  UNL1       -0.2806
     28 H         142.4148  139.1305  167.3828 H       1  UNL1        0.1550
     29 C         142.0823  141.2076  167.9036 C.ar    1  UNL1        0.0783
     30 C         142.8941  141.7044  169.0631 C.ar    1  UNL1        0.0193
     31 C         142.4002  142.8580  169.8848 C.ar    1  UNL1        0.0311
     32 C         141.0946  143.5149  169.5471 C.ar    1  UNL1        0.1425
     33 F         140.6009  144.6685  170.3688 F       1  UNL1       -0.2041
     34 C         140.2829  143.0181  168.3877 C.ar    1  UNL1        0.0605
     35 C         140.7768  141.8644  167.5659 C.ar    1  UNL1        0.1557
     36 F         139.9651  141.3677  166.4065 F       1  UNL1       -0.2028
@<TRIPOS>BOND
     1    17    18    1
     2    18    19   ar
     3    19    20   ar
     4    20    21   ar
     5    21    14    1
     6    14    15    2
     7    14    16    2
     8    14    12    1
     9    12    10    1
    10    10    11    2
    11    11     1    1
    12     1     2   ar
    13     2     3   ar
    14     3    24    1
    15    24    25    1
    16    25    26    2
    17    25    27   am
    18    27    29    1
    19    29    30   ar
    20    30    31   ar
    21    31    32   ar
    22    32    33    1
    23    32    34   ar
    24    34    35   ar
    25    35    36    1
    26     3     4   ar
    27     4     5   ar
    28     5     6   ar
    29     6     7   ar
    30     7     8   ar
    31     8     9   ar
    32    21    22   ar
    33    22    23   ar
    34    23    18   ar
    35     9     1   ar
    36    35    29   ar
    37     9     4   ar
    38    12    13    1
    39    27    28    1
@<TRIPOS>MOLECULE
*****
 36 39 0 0 0
SMALL
GASTEIGER

@<TRIPOS>ATOM
      1 C         139.0827  139.2681  161.0170 C.ar    1  UNL1        0.0393
      2 C         139.2651  138.2137  162.0682 C.ar    1  UNL1        0.0779
      3 N         138.9091  138.8157  163.3951 N.ar    1  UNL1       -0.3177
      4 C         138.5068  140.2422  163.1641 C.ar    1  UNL1        0.0604
      5 C         138.0567  141.3226  164.1022 C.ar    1  UNL1        0.0172
      6 C         137.7139  142.6826  163.5704 C.ar    1  UNL1        0.0015
      7 C         137.8212  142.9622  162.1006 C.ar    1  UNL1        0.0001
      8 C         138.2713  141.8818  161.1626 C.ar    1  UNL1        0.0015
      9 C         138.6142  140.5218  161.6943 C.ar    1  UNL1        0.0188
     10 N         140.7291  138.9903  159.0263 N.2     1  UNL1       -0.1636
     11 C         139.3263  139.0986  159.5466 C.2     1  UNL1        0.1204
     12 N         140.9726  138.8208  157.5559 N.pl3   1  UNL1       -0.1361
     13 H         140.8221  139.5755  156.9418 H       1  UNL1        0.1966
     14 S         141.4454  137.5016  157.0213 S.O2    1  UNL1        0.0877
     15 O         142.8306  137.7981  157.5143 O.2     1  UNL1       -0.1487
     16 O         140.0600  137.2050  156.5282 O.2     1  UNL1       -0.1487
     17 C         143.3360  132.2242  154.8824 C.3     1  UNL1        0.0310
     18 C         142.8634  133.5435  155.4171 C.ar    1  UNL1       -0.0218
     19 C         143.6310  134.2290  156.5083 C.ar    1  UNL1       -0.0029
     20 C         143.1584  135.5483  157.0431 C.ar    1  UNL1        0.0199
     21 C         141.9180  136.1822  156.4866 C.ar    1  UNL1        0.1266
     22 C         141.1504  135.4968  155.3953 C.ar    1  UNL1        0.0199
     23 C         141.6230  134.1774  154.8605 C.ar    1  UNL1       -0.0029
     24 C         138.9485  138.1144  164.7205 C.3     1  UNL1        0.1920
     25 C         139.4307  138.8424  165.9402 C.2     1  UNL1        0.2493
     26 O         138.5872  138.8689  167.1803 O.2     1  UNL1       -0.2727
     27 N         140.7565  139.5439  165.9198 N.am    1  UNL1       -0.2806
     28 H         141.3101  139.5265  165.1059 H       1  UNL1        0.1550
     29 C         141.2385  140.2718  167.1395 C.ar    1  UNL1        0.0783
     30 C         142.2198  139.6162  168.0654 C.ar    1  UNL1        0.0193
     31 C         142.7018  140.3442  169.2851 C.ar    1  UNL1        0.0311
     32 C         142.2027  141.7279  169.5789 C.ar    1  UNL1        0.1425
     33 F         142.6848  142.4558  170.7986 F       1  UNL1       -0.2041
     34 C         141.2215  142.3835  168.6530 C.ar    1  UNL1        0.0605
     35 C         140.7394  141.6555  167.4333 C.ar    1  UNL1        0.1557
     36 F         139.7581  142.3111  166.5074 F       1  UNL1       -0.2028
@<TRIPOS>BOND
     1    17    18    1
     2    18    19   ar
     3    19    20   ar
     4    20    21   ar
     5    21    14    1
     6    14    15    2
     7    14    16    2
     8    14    12    1
     9    12    10    1
    10    10    11    2
    11    11     1    1
    12     1     2   ar
    13     2     3   ar
    14     3    24    1
    15    24    25    1
    16    25    26    2
    17    25    27   am
    18    27    29    1
    19    29    30   ar
    20    30    31   ar
    21    31    32   ar
    22    32    33    1
    23    32    34   ar
    24    34    35   ar
    25    35    36    1
    26     3     4   ar
    27     4     5   ar
    28     5     6   ar
    29     6     7   ar
    30     7     8   ar
    31     8     9   ar
    32    21    22   ar
    33    22    23   ar
    34    23    18   ar
    35     9     1   ar
    36    35    29   ar
    37     9     4   ar
    38    12    13    1
    39    27    28    1
@<TRIPOS>MOLECULE
*****
 36 39 0 0 0
SMALL
GASTEIGER

@<TRIPOS>ATOM
      1 C         143.5691  139.8999  157.4069 C.ar    1  UNL1        0.0393
      2 C         143.2512  140.4996  158.7446 C.ar    1  UNL1        0.0779
      3 N         144.2286  141.6085  158.9994 N.ar    1  UNL1       -0.3177
      4 C         145.1505  141.6942  157.8193 C.ar    1  UNL1        0.0604
      5 C         146.3085  142.5974  157.5138 C.ar    1  UNL1        0.0172
      6 C         147.0589  142.4446  156.2240 C.ar    1  UNL1        0.0015
      7 C         146.6513  141.3886  155.2398 C.ar    1  UNL1        0.0001
      8 C         145.4933  140.4854  155.5453 C.ar    1  UNL1        0.0015
      9 C         144.7430  140.6382  156.8351 C.ar    1  UNL1        0.0188
     10 N         143.5447  137.4580  156.5198 N.2     1  UNL1       -0.1636
     11 C         142.8410  138.7617  156.7554 C.2     1  UNL1        0.1204
     12 N         142.8166  136.3199  155.8683 N.pl3   1  UNL1       -0.1361
     13 H         142.1355  136.5004  155.1807 H       1  UNL1        0.1966
     14 S         143.1263  134.9067  156.2644 S.O2    1  UNL1        0.0877
     15 O         143.2552  135.3361  157.6958 O.2     1  UNL1       -0.1487
     16 O         142.9974  134.4772  154.8329 O.2     1  UNL1       -0.1487
     17 C         144.3650  129.2537  157.8486 C.3     1  UNL1        0.0310
     18 C         144.0553  130.6669  157.4526 C.ar    1  UNL1       -0.0218
     19 C         144.9331  131.7877  157.9250 C.ar    1  UNL1       -0.0029
     20 C         144.6235  133.2010  157.5290 C.ar    1  UNL1        0.0199
     21 C         143.4360  133.4935  156.6605 C.ar    1  UNL1        0.1266
     22 C         142.5582  132.3727  156.1880 C.ar    1  UNL1        0.0199
     23 C         142.8678  130.9593  156.5840 C.ar    1  UNL1       -0.0029
     24 C         144.2758  142.4790  160.2201 C.3     1  UNL1        0.1920
     25 C         144.2952  141.8566  161.5849 C.2     1  UNL1        0.2493
     26 O         145.5912  141.7164  162.3269 O.2     1  UNL1       -0.2727
     27 N         143.0185  141.3743  162.2074 N.am    1  UNL1       -0.2806
     28 H         142.1678  141.4663  161.7204 H       1  UNL1        0.1550
     29 C         143.0379  140.7520  163.5721 C.ar    1  UNL1        0.0783
     30 C         142.6546  141.5651  164.7728 C.ar    1  UNL1        0.0193
     31 C         142.6741  140.9427  166.1374 C.ar    1  UNL1        0.0311
     32 C         143.0769  139.5071  166.3014 C.ar    1  UNL1        0.1425
     33 F         143.0963  138.8847  167.6660 F       1  UNL1       -0.2041
     34 C         143.4601  138.6939  165.1006 C.ar    1  UNL1        0.0605
     35 C         143.4407  139.3164  163.7359 C.ar    1  UNL1        0.1557
     36 F         143.8240  138.5032  162.5351 F       1  UNL1       -0.2028
@<TRIPOS>BOND
     1    17    18    1
     2    18    19   ar
     3    19    20   ar
     4    20    21   ar
     5    21    14    1
     6    14    15    2
     7    14    16    2
     8    14    12    1
     9    12    10    1
    10    10    11    2
    11    11     1    1
    12     1     2   ar
    13     2     3   ar
    14     3    24    1
    15    24    25    1
    16    25    26    2
    17    25    27   am
    18    27    29    1
    19    29    30   ar
    20    30    31   ar
    21    31    32   ar
    22    32    33    1
    23    32    34   ar
    24    34    35   ar
    25    35    36    1
    26     3     4   ar
    27     4     5   ar
    28     5     6   ar
    29     6     7   ar
    30     7     8   ar
    31     8     9   ar
    32    21    22   ar
    33    22    23   ar
    34    23    18   ar
    35     9     1   ar
    36    35    29   ar
    37     9     4   ar
    38    12    13    1
    39    27    28    1
