@<TRIPOS>MOLECULE
*****
 31 35 0 0 0
SMALL
GASTEIGER

@<TRIPOS>ATOM
      1 N         140.9176  139.9791  166.8338 N.pl3   1  UNL1       -0.3033
      2 H         140.7121  139.1406  166.3606 H       1  UNL1        0.1496
      3 C         141.2895  141.2070  166.0567 C.ar    1  UNL1        0.2359
      4 N         140.3440  142.2713  165.5840 N.ar    1  UNL1       -0.1904
      5 C         141.1424  143.3083  164.8510 C.ar    1  UNL1        0.2007
      6 C         140.7450  144.5834  164.1682 C.ar    1  UNL1        0.1747
      7 C         141.7865  145.4351  163.5050 C.ar    1  UNL1        0.0417
      8 C         143.2254  145.0118  163.5247 C.ar    1  UNL1        0.0240
      9 C         143.6228  143.7367  164.2075 C.ar    1  UNL1        0.1024
     10 N         142.5812  142.8850  164.8707 N.ar    1  UNL1       -0.2053
     11 N         142.6722  141.5863  165.6158 N.ar    1  UNL1       -0.1283
     12 O         139.3061  145.0067  164.1485 O.3     1  UNL1       -0.4635
     13 C         138.4097  144.5654  163.0297 C.3     1  UNL1        0.3082
     14 C         137.6567  143.2726  163.1374 C.3     1  UNL1        0.4380
     15 F         136.9037  141.9798  163.2451 F       1  UNL1       -0.1663
     16 F         137.7625  143.0873  161.6527 F       1  UNL1       -0.1663
     17 F         137.5509  143.4579  164.6222 F       1  UNL1       -0.1663
     18 N         140.9976  139.9772  166.9689 N.pl3   1  UNL1       -0.2869
     19 C         139.6738  140.0974  167.6639 C.3     1  UNL1        0.0943
     20 C         139.6150  140.1471  169.1619 C.3     1  UNL1        0.0379
     21 C         140.0209  140.1603  170.6059 C.3     1  UNL1        0.0035
     22 C         141.5156  140.0501  170.6683 C.3     1  UNL1        0.0035
     23 C         142.0334  139.9688  169.2628 C.3     1  UNL1        0.0379
     24 C         142.2626  139.9066  167.7719 C.3     1  UNL1        0.0943
     25 C         140.8588  140.0288  168.3318 C.3     1  UNL1        0.0750
     26 C         139.6560  140.3481  161.8754 C.3     1  UNL1        0.0744
     27 C         140.4398  140.0980  163.1296 C.ar    1  UNL1        0.1494
     28 N         141.8544  139.6042  163.2016 N.ar    1  UNL1       -0.1917
     29 S         142.2355  139.4989  164.6485 S.2     1  UNL1        0.0491
     30 C         141.0565  139.9275  165.4708 C.ar    1  UNL1        0.1818
     31 N         139.9467  140.2978  164.5321 N.ar    1  UNL1       -0.2078
@<TRIPOS>BOND
     1    26    27    1
     2    27    28   ar
     3    28    29   ar
     4    29    30   ar
     5    30    18    1
     6    18    19    1
     7    20    19    1
     8    20    21    1
     9    21    22    1
    10    23    22    1
    11    23    24    1
    12    23    25    1
    13    25     1    1
    14     1     3    1
    15     3     4   ar
    16     4     5   ar
    17     5     6   ar
    18     6    12    1
    19    12    13    1
    20    13    14    1
    21    14    15    1
    22    14    16    1
    23    14    17    1
    24     6     7   ar
    25     7     8   ar
    26     8     9   ar
    27     9    10   ar
    28    10    11   ar
    29    30    31   ar
    30    31    27   ar
    31    24    18    1
    32    11     3   ar
    33    25    20    1
    34    10     5   ar
    35     1     2    1
@<TRIPOS>MOLECULE
*****
 31 35 0 0 0
SMALL
GASTEIGER

@<TRIPOS>ATOM
      1 N         141.6556  139.7012  166.7011 N.pl3   1  UNL1       -0.3033
      2 H         141.8727  138.7979  166.3753 H       1  UNL1        0.1496
      3 C         142.0072  140.9017  165.8732 C.ar    1  UNL1        0.2359
      4 N         141.1318  141.5475  164.8404 N.ar    1  UNL1       -0.1904
      5 C         141.8795  142.7120  164.2616 C.ar    1  UNL1        0.2007
      6 C         141.5152  143.7146  163.2071 C.ar    1  UNL1        0.1747
      7 C         142.4884  144.7911  162.8278 C.ar    1  UNL1        0.0417
      8 C         143.8258  144.8651  163.5029 C.ar    1  UNL1        0.0240
      9 C         144.1901  143.8625  164.5575 C.ar    1  UNL1        0.1024
     10 N         143.2169  142.7859  164.9368 N.ar    1  UNL1       -0.2053
     11 N         143.2958  141.6671  165.9328 N.ar    1  UNL1       -0.1283
     12 O         140.1778  143.6407  162.5320 O.3     1  UNL1       -0.4635
     13 C         139.1283  144.6694  162.8321 C.3     1  UNL1        0.3082
     14 C         138.1686  144.4536  163.9645 C.3     1  UNL1        0.4380
     15 F         137.2089  144.2377  165.0970 F       1  UNL1       -0.1663
     16 F         139.0601  145.2488  164.8716 F       1  UNL1       -0.1663
     17 F         137.2771  143.6583  163.0574 F       1  UNL1       -0.1663
     18 N         141.5216  139.7315  166.7772 N.pl3   1  UNL1       -0.2869
     19 C         142.3054  139.5948  168.0488 C.3     1  UNL1        0.0943
     20 C         141.6231  139.7707  169.3730 C.3     1  UNL1        0.0379
     21 C         140.5728  140.0181  170.4149 C.3     1  UNL1        0.0035
     22 C         139.2737  140.2774  169.7111 C.3     1  UNL1        0.0035
     23 C         139.5212  140.1903  168.2342 C.3     1  UNL1        0.0379
     24 C         140.0555  140.0440  166.8298 C.3     1  UNL1        0.0943
     25 C         140.9732  139.8771  168.0252 C.3     1  UNL1        0.0750
     26 C         142.3586  139.1884  161.5921 C.3     1  UNL1        0.0744
     27 C         142.5887  139.3060  163.0697 C.ar    1  UNL1        0.1494
     28 N         143.9193  139.2639  163.7609 N.ar    1  UNL1       -0.1917
     29 S         143.6815  139.4182  165.2338 S.2     1  UNL1        0.0491
     30 C         142.2040  139.5556  165.4530 C.ar    1  UNL1        0.1818
     31 N         141.5286  139.4862  164.1154 N.ar    1  UNL1       -0.2078
@<TRIPOS>BOND
     1    26    27    1
     2    27    28   ar
     3    28    29   ar
     4    29    30   ar
     5    30    18    1
     6    18    19    1
     7    20    19    1
     8    20    21    1
     9    21    22    1
    10    23    22    1
    11    23    24    1
    12    23    25    1
    13    25     1    1
    14     1     3    1
    15     3     4   ar
    16     4     5   ar
    17     5     6   ar
    18     6    12    1
    19    12    13    1
    20    13    14    1
    21    14    15    1
    22    14    16    1
    23    14    17    1
    24     6     7   ar
    25     7     8   ar
    26     8     9   ar
    27     9    10   ar
    28    10    11   ar
    29    30    31   ar
    30    31    27   ar
    31    24    18    1
    32    11     3   ar
    33    25    20    1
    34    10     5   ar
    35     1     2    1
@<TRIPOS>MOLECULE
*****
 31 35 0 0 0
SMALL
GASTEIGER

@<TRIPOS>ATOM
      1 N         141.8619  140.8027  166.4152 N.pl3   1  UNL1       -0.3033
      2 H         142.5989  141.4255  166.2197 H       1  UNL1        0.1496
      3 C         140.9816  140.3103  165.3050 C.ar    1  UNL1        0.2359
      4 N         139.7592  141.0007  164.7767 N.ar    1  UNL1       -0.1904
      5 C         139.1913  140.1580  163.6733 C.ar    1  UNL1        0.2007
      6 C         137.9933  140.3372  162.7886 C.ar    1  UNL1        0.1747
      7 C         137.6667  139.3051  161.7503 C.ar    1  UNL1        0.0417
      8 C         138.5382  138.0939  161.5967 C.ar    1  UNL1        0.0240
      9 C         139.7362  137.9147  162.4814 C.ar    1  UNL1        0.1024
     10 N         140.0627  138.9468  163.5197 N.ar    1  UNL1       -0.2053
     11 N         141.1692  139.0409  164.5281 N.ar    1  UNL1       -0.1283
     12 O         137.1219  141.5484  162.9423 O.3     1  UNL1       -0.4635
     13 C         137.6722  142.9111  162.6424 C.3     1  UNL1        0.3082
     14 C         137.8602  143.9046  163.7505 C.3     1  UNL1        0.4380
     15 F         138.0481  144.8980  164.8585 F       1  UNL1       -0.1663
     16 F         137.2914  142.9205  164.7292 F       1  UNL1       -0.1663
     17 F         138.4289  144.8887  162.7717 F       1  UNL1       -0.1663
     18 N         141.7679  140.8077  166.5409 N.pl3   1  UNL1       -0.2869
     19 C         142.7506  139.8957  167.2136 C.3     1  UNL1        0.0943
     20 C         142.5079  139.4393  168.6218 C.3     1  UNL1        0.0379
     21 C         141.8832  139.2493  169.9722 C.3     1  UNL1        0.0035
     22 C         140.6083  140.0389  170.0084 C.3     1  UNL1        0.0035
     23 C         140.4452  140.7170  168.6803 C.3     1  UNL1        0.0379
     24 C         140.5425  141.2633  167.2764 C.3     1  UNL1        0.0943
     25 C         141.6192  140.3464  167.8234 C.3     1  UNL1        0.0750
     26 C         141.5161  143.5543  162.0382 C.3     1  UNL1        0.0744
     27 C         141.8948  142.5265  163.0631 C.ar    1  UNL1        0.1494
     28 N         142.8731  141.4061  162.8686 N.ar    1  UNL1       -0.1917
     29 S         142.9446  140.6259  164.1477 S.2     1  UNL1        0.0491
     30 C         142.0105  141.2641  165.1328 C.ar    1  UNL1        0.1818
     31 N         141.3617  142.4387  164.4624 N.ar    1  UNL1       -0.2078
@<TRIPOS>BOND
     1    26    27    1
     2    27    28   ar
     3    28    29   ar
     4    29    30   ar
     5    30    18    1
     6    18    19    1
     7    20    19    1
     8    20    21    1
     9    21    22    1
    10    23    22    1
    11    23    24    1
    12    23    25    1
    13    25     1    1
    14     1     3    1
    15     3     4   ar
    16     4     5   ar
    17     5     6   ar
    18     6    12    1
    19    12    13    1
    20    13    14    1
    21    14    15    1
    22    14    16    1
    23    14    17    1
    24     6     7   ar
    25     7     8   ar
    26     8     9   ar
    27     9    10   ar
    28    10    11   ar
    29    30    31   ar
    30    31    27   ar
    31    24    18    1
    32    11     3   ar
    33    25    20    1
    34    10     5   ar
    35     1     2    1
@<TRIPOS>MOLECULE
*****
 31 35 0 0 0
SMALL
GASTEIGER

@<TRIPOS>ATOM
      1 N         138.6722  140.4460  163.2298 N.pl3   1  UNL1       -0.3033
      2 H         138.0263  140.4416  162.4868 H       1  UNL1        0.1496
      3 C         139.7834  141.4534  163.2516 C.ar    1  UNL1        0.2359
      4 N         141.1836  141.2324  162.7611 N.ar    1  UNL1       -0.1904
      5 C         141.9551  142.5010  162.9741 C.ar    1  UNL1        0.2007
      6 C         143.3791  142.8709  162.6819 C.ar    1  UNL1        0.1747
      7 C         143.8796  144.2458  163.0119 C.ar    1  UNL1        0.0417
      8 C         142.9562  145.2509  163.6340 C.ar    1  UNL1        0.0240
      9 C         141.5322  144.8810  163.9263 C.ar    1  UNL1        0.1024
     10 N         141.0317  143.5061  163.5963 N.ar    1  UNL1       -0.2053
     11 N         139.6895  142.8586  163.7678 N.ar    1  UNL1       -0.1283
     12 O         144.3025  141.8658  162.0597 O.3     1  UNL1       -0.4635
     13 C         145.1493  140.9855  162.9303 C.3     1  UNL1        0.3082
     14 C         144.5069  139.9272  163.7773 C.3     1  UNL1        0.4380
     15 F         143.8646  138.8689  164.6243 F       1  UNL1       -0.1663
     16 F         144.4688  139.0044  162.5954 F       1  UNL1       -0.1663
     17 F         144.5450  140.8500  164.9592 F       1  UNL1       -0.1663
     18 N         138.6364  140.4203  163.3805 N.pl3   1  UNL1       -0.2869
     19 C         138.9480  138.9752  163.1269 C.3     1  UNL1        0.0943
     20 C         138.8209  137.9744  164.2371 C.3     1  UNL1        0.0379
     21 C         138.5662  137.3599  165.5816 C.3     1  UNL1        0.0035
     22 C         138.1330  138.4510  166.5154 C.3     1  UNL1        0.0035
     23 C         138.1200  139.7399  165.7480 C.3     1  UNL1        0.0379
     24 C         138.1977  140.8649  164.7443 C.3     1  UNL1        0.0943
     25 C         138.5451  139.4454  164.3400 C.3     1  UNL1        0.0750
     26 C         140.1653  142.8176  158.9312 C.3     1  UNL1        0.0744
     27 C         139.4662  142.5229  160.2252 C.ar    1  UNL1        0.1494
     28 N         138.4517  143.3990  160.8987 N.ar    1  UNL1       -0.1917
     29 S         138.0175  142.7179  162.1626 S.2     1  UNL1        0.0491
     30 C         138.7635  141.4210  162.2703 C.ar    1  UNL1        0.1818
     31 N         139.6588  141.3005  161.0729 N.ar    1  UNL1       -0.2078
@<TRIPOS>BOND
     1    26    27    1
     2    27    28   ar
     3    28    29   ar
     4    29    30   ar
     5    30    18    1
     6    18    19    1
     7    20    19    1
     8    20    21    1
     9    21    22    1
    10    23    22    1
    11    23    24    1
    12    23    25    1
    13    25     1    1
    14     1     3    1
    15     3     4   ar
    16     4     5   ar
    17     5     6   ar
    18     6    12    1
    19    12    13    1
    20    13    14    1
    21    14    15    1
    22    14    16    1
    23    14    17    1
    24     6     7   ar
    25     7     8   ar
    26     8     9   ar
    27     9    10   ar
    28    10    11   ar
    29    30    31   ar
    30    31    27   ar
    31    24    18    1
    32    11     3   ar
    33    25    20    1
    34    10     5   ar
    35     1     2    1
@<TRIPOS>MOLECULE
*****
 31 35 0 0 0
SMALL
GASTEIGER

@<TRIPOS>ATOM
      1 N         141.5144  140.8567  167.1131 N.pl3   1  UNL1       -0.3033
      2 H         142.4884  140.7136  167.1236 H       1  UNL1        0.1496
      3 C         140.7141  140.4804  165.9014 C.ar    1  UNL1        0.2359
      4 N         140.2502  141.4169  164.8255 N.ar    1  UNL1       -0.1904
      5 C         139.4867  140.6169  163.8121 C.ar    1  UNL1        0.2007
      6 C         138.7976  141.0065  162.5380 C.ar    1  UNL1        0.1747
      7 C         138.1006  139.9652  161.7136 C.ar    1  UNL1        0.0417
      8 C         138.0926  138.5342  162.1633 C.ar    1  UNL1        0.0240
      9 C         138.7817  138.1445  163.4374 C.ar    1  UNL1        0.1024
     10 N         139.4787  139.1859  164.2618 N.ar    1  UNL1       -0.2053
     11 N         140.2373  139.1016  165.5531 N.ar    1  UNL1       -0.1283
     12 O         138.8056  142.4375  162.0883 O.3     1  UNL1       -0.4635
     13 C         137.7889  143.3990  162.6283 C.3     1  UNL1        0.3082
     14 C         138.1157  144.2425  163.8249 C.3     1  UNL1        0.4380
     15 F         138.4424  145.0860  165.0215 F       1  UNL1       -0.1663
     16 F         138.7605  145.2602  162.9314 F       1  UNL1       -0.1663
     17 F         137.4708  143.2248  164.7184 F       1  UNL1       -0.1663
     18 N         141.4158  140.8341  167.2332 N.pl3   1  UNL1       -0.2869
     19 C         141.6596  142.2677  167.6009 C.3     1  UNL1        0.0943
     20 C         140.9759  142.8620  168.7965 C.3     1  UNL1        0.0379
     21 C         140.1167  143.0217  170.0156 C.3     1  UNL1        0.0035
     22 C         139.4404  141.7094  170.2813 C.3     1  UNL1        0.0035
     23 C         139.8817  140.7386  169.2262 C.3     1  UNL1        0.0379
     24 C         140.4883  139.9947  168.0610 C.3     1  UNL1        0.0943
     25 C         140.8307  141.4510  168.3086 C.3     1  UNL1        0.0750
     26 C         143.7454  140.3141  162.5232 C.3     1  UNL1        0.0744
     27 C         143.1703  140.0007  163.8727 C.ar    1  UNL1        0.1494
     28 N         143.1330  138.6495  164.5230 N.ar    1  UNL1       -0.1917
     29 S         142.4712  138.7973  165.8610 S.2     1  UNL1        0.0491
     30 C         142.0995  140.2398  166.0376 C.ar    1  UNL1        0.1818
     31 N         142.5316  140.9835  164.8087 N.ar    1  UNL1       -0.2078
@<TRIPOS>BOND
     1    26    27    1
     2    27    28   ar
     3    28    29   ar
     4    29    30   ar
     5    30    18    1
     6    18    19    1
     7    20    19    1
     8    20    21    1
     9    21    22    1
    10    23    22    1
    11    23    24    1
    12    23    25    1
    13    25     1    1
    14     1     3    1
    15     3     4   ar
    16     4     5   ar
    17     5     6   ar
    18     6    12    1
    19    12    13    1
    20    13    14    1
    21    14    15    1
    22    14    16    1
    23    14    17    1
    24     6     7   ar
    25     7     8   ar
    26     8     9   ar
    27     9    10   ar
    28    10    11   ar
    29    30    31   ar
    30    31    27   ar
    31    24    18    1
    32    11     3   ar
    33    25    20    1
    34    10     5   ar
    35     1     2    1
@<TRIPOS>MOLECULE
*****
 31 35 0 0 0
SMALL
GASTEIGER

@<TRIPOS>ATOM
      1 N         142.8923  141.4053  166.7067 N.pl3   1  UNL1       -0.3033
      2 H         143.8024  141.5475  166.3593 H       1  UNL1        0.1496
      3 C         141.7037  141.7724  165.8686 C.ar    1  UNL1        0.2359
      4 N         141.0796  140.9212  164.8028 N.ar    1  UNL1       -0.1904
      5 C         139.9207  141.6779  164.2246 C.ar    1  UNL1        0.2007
      6 C         138.9375  141.3363  163.1445 C.ar    1  UNL1        0.1747
      7 C         137.8620  142.3137  162.7729 C.ar    1  UNL1        0.0417
      8 C         137.7698  143.6326  163.4814 C.ar    1  UNL1        0.0240
      9 C         138.7531  143.9742  164.5614 C.ar    1  UNL1        0.1024
     10 N         139.8285  142.9968  164.9330 N.ar    1  UNL1       -0.2053
     11 N         140.9304  143.0552  165.9490 N.ar    1  UNL1       -0.1283
     12 O         139.0297  140.0174  162.4361 O.3     1  UNL1       -0.4635
     13 C         138.3238  138.8164  162.9922 C.3     1  UNL1        0.3082
     14 C         138.9814  137.9843  164.0530 C.3     1  UNL1        0.4380
     15 F         139.6390  137.1523  165.1138 F       1  UNL1       -0.1663
     16 F         139.7060  137.2072  162.9942 F       1  UNL1       -0.1663
     17 F         138.2568  138.7615  165.1117 F       1  UNL1       -0.1663
     18 N         142.8573  141.2780  166.7918 N.pl3   1  UNL1       -0.2869
     19 C         143.0252  142.1410  168.0071 C.3     1  UNL1        0.0943
     20 C         142.8272  141.5573  169.3746 C.3     1  UNL1        0.0379
     21 C         142.5436  140.5901  170.4855 C.3     1  UNL1        0.0035
     22 C         142.2353  139.2565  169.8717 C.3     1  UNL1        0.0035
     23 C         142.3285  139.3997  168.3813 C.3     1  UNL1        0.0379
     24 C         142.4914  139.8313  166.9439 C.3     1  UNL1        0.0943
     25 C         142.6942  140.8216  168.0742 C.3     1  UNL1        0.0750
     26 C         143.3418  144.7330  162.8282 C.3     1  UNL1        0.0744
     27 C         143.2781  143.4498  163.6024 C.ar    1  UNL1        0.1494
     28 N         143.4422  142.0700  163.0372 N.ar    1  UNL1       -0.1917
     29 S         143.3046  141.0886  164.1632 S.2     1  UNL1        0.0491
     30 C         143.0554  141.8618  165.4242 C.ar    1  UNL1        0.1818
     31 N         143.0390  143.3211  165.0776 N.ar    1  UNL1       -0.2078
@<TRIPOS>BOND
     1    26    27    1
     2    27    28   ar
     3    28    29   ar
     4    29    30   ar
     5    30    18    1
     6    18    19    1
     7    20    19    1
     8    20    21    1
     9    21    22    1
    10    23    22    1
    11    23    24    1
    12    23    25    1
    13    25     1    1
    14     1     3    1
    15     3     4   ar
    16     4     5   ar
    17     5     6   ar
    18     6    12    1
    19    12    13    1
    20    13    14    1
    21    14    15    1
    22    14    16    1
    23    14    17    1
    24     6     7   ar
    25     7     8   ar
    26     8     9   ar
    27     9    10   ar
    28    10    11   ar
    29    30    31   ar
    30    31    27   ar
    31    24    18    1
    32    11     3   ar
    33    25    20    1
    34    10     5   ar
    35     1     2    1
