@<TRIPOS>MOLECULE
*****
 42 46 0 0 0
SMALL
GASTEIGER

@<TRIPOS>ATOM
      1 N         140.4516  138.1685  161.6850 N.3     1  UNL1       -0.2626
      2 C         141.9264  138.0878  161.4237 C.3     1  UNL1        0.0900
      3 C         142.4481  138.2160  160.0233 C.3     1  UNL1        0.0899
      4 N         141.4950  138.4251  158.8840 N.3     1  UNL1       -0.2665
      5 C         140.0201  138.5058  159.1453 C.3     1  UNL1        0.0899
      6 C         139.4984  138.3775  160.5457 C.3     1  UNL1        0.0900
      7 C         139.9298  138.0402  163.0855 C.3     1  UNL1        0.1585
      8 O         139.0054  140.1217  164.3357 O.2     1  UNL1       -0.2736
      9 C         140.1244  139.1604  164.0639 C.2     1  UNL1        0.2393
     10 N         141.4380  139.3193  164.7705 N.am    1  UNL1       -0.2975
     11 H         142.1724  138.6884  164.5921 H       1  UNL1        0.1500
     12 C         141.6326  140.4395  165.7489 C.3     1  UNL1        0.1169
     13 C         141.2425  140.2566  167.1857 C.ar    1  UNL1       -0.0002
     14 C         142.2402  139.7253  168.1719 C.ar    1  UNL1       -0.0001
     15 C         141.8502  139.5423  169.6086 C.ar    1  UNL1        0.0294
     16 C         140.4625  139.8907  170.0593 C.ar    1  UNL1        0.1401
     17 F         140.0725  139.7077  171.4961 F       1  UNL1       -0.2042
     18 C         139.4649  140.4219  169.0732 C.ar    1  UNL1        0.0294
     19 C         139.8549  140.6049  167.6363 C.ar    1  UNL1       -0.0001
     20 C         142.2172  141.7426  165.2905 C.ar    1  UNL1       -0.0002
     21 C         143.6369  142.0883  165.6295 C.ar    1  UNL1       -0.0001
     22 C         144.2215  143.3914  165.1711 C.ar    1  UNL1        0.0294
     23 C         143.3865  144.3488  164.3738 C.ar    1  UNL1        0.1401
     24 F         143.9711  145.6520  163.9154 F       1  UNL1       -0.2042
     25 C         141.9668  144.0032  164.0348 C.ar    1  UNL1        0.0294
     26 C         141.3821  142.7001  164.4932 C.ar    1  UNL1       -0.0001
     27 C         142.0167  138.5533  157.4835 C.3     1  UNL1        0.1008
     28 C         142.7703  137.4178  156.8570 C.ar    1  UNL1        0.0129
     29 C         143.6955  137.5164  155.6804 C.ar    1  UNL1        0.0176
     30 C         144.2280  136.1438  155.3932 C.ar    1  UNL1        0.0812
     31 N         143.6320  135.1969  156.3924 N.ar    1  UNL1       -0.2892
     32 C         142.7311  135.9843  157.2970 C.ar    1  UNL1        0.0785
     33 C         143.8914  133.7217  156.4727 C.ar    1  UNL1        0.1477
     34 C         143.4884  132.8265  155.3387 C.ar    1  UNL1        0.0374
     35 C         143.7478  131.3513  155.4191 C.ar    1  UNL1        0.0085
     36 C         144.4101  130.7713  156.6335 C.ar    1  UNL1        0.0906
     37 C         144.8132  131.6665  157.7675 C.ar    1  UNL1        0.1044
     38 N         144.5538  133.1417  157.6872 N.ar    1  UNL1       -0.2265
     39 C         144.6695  129.2961  156.7138 C.3     1  UNL1        0.4200
     40 F         144.9289  127.8209  156.7941 F       1  UNL1       -0.1658
     41 F         143.9824  129.2479  158.0463 F       1  UNL1       -0.1658
     42 F         145.3566  129.3443  155.3812 F       1  UNL1       -0.1658
@<TRIPOS>BOND
     1     8     9    2
     2     9     7    1
     3     7     1    1
     4     1     2    1
     5     2     3    1
     6     3     4    1
     7     4    27    1
     8    27    28    1
     9    28    29   ar
    10    29    30   ar
    11    30    31   ar
    12    31    33    1
    13    33    34   ar
    14    34    35   ar
    15    35    36   ar
    16    36    39    1
    17    39    40    1
    18    39    41    1
    19    39    42    1
    20    36    37   ar
    21    37    38   ar
    22    31    32   ar
    23     4     5    1
    24     5     6    1
    25     9    10   am
    26    10    12    1
    27    12    13    1
    28    13    14   ar
    29    14    15   ar
    30    15    16   ar
    31    16    17    1
    32    16    18   ar
    33    18    19   ar
    34    12    20    1
    35    20    21   ar
    36    21    22   ar
    37    22    23   ar
    38    23    24    1
    39    23    25   ar
    40    25    26   ar
    41     6     1    1
    42    19    13   ar
    43    26    20   ar
    44    32    28   ar
    45    38    33   ar
    46    10    11    1
@<TRIPOS>MOLECULE
*****
 42 46 0 0 0
SMALL
GASTEIGER

@<TRIPOS>ATOM
      1 N         140.4845  138.1279  161.6597 N.3     1  UNL1       -0.2626
      2 C         139.5311  138.3624  160.5257 C.3     1  UNL1        0.0900
      3 C         140.0498  138.4907  159.1242 C.3     1  UNL1        0.0899
      4 N         141.5220  138.3846  158.8566 N.3     1  UNL1       -0.2665
      5 C         142.4754  138.1501  159.9907 C.3     1  UNL1        0.0899
      6 C         141.9566  138.0217  161.3922 C.3     1  UNL1        0.0900
      7 C         139.9657  137.9995  163.0614 C.3     1  UNL1        0.1585
      8 O         139.0335  140.0860  164.2973 O.2     1  UNL1       -0.2736
      9 C         140.1541  139.1234  164.0366 C.2     1  UNL1        0.2393
     10 N         141.4630  139.2849  164.7514 N.am    1  UNL1       -0.2975
     11 H         142.1984  138.6531  164.5804 H       1  UNL1        0.1500
     12 C         141.6513  140.4088  165.7267 C.3     1  UNL1        0.1169
     13 C         142.2314  141.7128  165.2653 C.ar    1  UNL1       -0.0002
     14 C         143.6962  141.9854  165.4391 C.ar    1  UNL1       -0.0001
     15 C         144.2763  143.2895  164.9777 C.ar    1  UNL1        0.0294
     16 C         143.3917  144.3209  164.3425 C.ar    1  UNL1        0.1401
     17 F         143.9719  145.6249  163.8811 F       1  UNL1       -0.2042
     18 C         141.9270  144.0484  164.1686 C.ar    1  UNL1        0.0294
     19 C         141.3468  142.7443  164.6300 C.ar    1  UNL1       -0.0001
     20 C         141.2595  140.2287  167.1634 C.ar    1  UNL1       -0.0002
     21 C         142.2804  139.7863  168.1694 C.ar    1  UNL1       -0.0001
     22 C         141.8886  139.6062  169.6060 C.ar    1  UNL1        0.0294
     23 C         140.4760  139.8685  170.0368 C.ar    1  UNL1        0.1401
     24 F         140.0842  139.6885  171.4734 F       1  UNL1       -0.2042
     25 C         139.4551  140.3110  169.0308 C.ar    1  UNL1        0.0294
     26 C         139.8469  140.4911  167.5941 C.ar    1  UNL1       -0.0001
     27 C         142.0407  138.5129  157.4550 C.3     1  UNL1        0.1008
     28 C         142.7953  137.3785  156.8277 C.ar    1  UNL1        0.0129
     29 C         143.7154  137.4775  155.6472 C.ar    1  UNL1        0.0176
     30 C         144.2510  136.1060  155.3607 C.ar    1  UNL1        0.0812
     31 N         143.6619  135.1593  156.3641 N.ar    1  UNL1       -0.2892
     32 C         142.7622  135.9457  157.2707 C.ar    1  UNL1        0.0785
     33 C         143.9260  133.6850  156.4463 C.ar    1  UNL1        0.1477
     34 C         144.5089  133.0961  157.6966 C.ar    1  UNL1        0.0374
     35 C         144.7731  131.6219  157.7789 C.ar    1  UNL1        0.0085
     36 C         144.4544  130.7365  156.6108 C.ar    1  UNL1        0.0906
     37 C         143.8715  131.3254  155.3604 C.ar    1  UNL1        0.1044
     38 N         143.6073  132.7996  155.2782 N.ar    1  UNL1       -0.2265
     39 C         144.7186  129.2623  156.6931 C.3     1  UNL1        0.4200
     40 F         144.9828  127.7880  156.7752 F       1  UNL1       -0.1658
     41 F         144.0874  129.2251  158.0533 F       1  UNL1       -0.1658
     42 F         145.3498  129.2995  155.3328 F       1  UNL1       -0.1658
@<TRIPOS>BOND
     1     8     9    2
     2     9     7    1
     3     7     1    1
     4     1     2    1
     5     2     3    1
     6     3     4    1
     7     4    27    1
     8    27    28    1
     9    28    29   ar
    10    29    30   ar
    11    30    31   ar
    12    31    33    1
    13    33    34   ar
    14    34    35   ar
    15    35    36   ar
    16    36    39    1
    17    39    40    1
    18    39    41    1
    19    39    42    1
    20    36    37   ar
    21    37    38   ar
    22    31    32   ar
    23     4     5    1
    24     5     6    1
    25     9    10   am
    26    10    12    1
    27    12    13    1
    28    13    14   ar
    29    14    15   ar
    30    15    16   ar
    31    16    17    1
    32    16    18   ar
    33    18    19   ar
    34    12    20    1
    35    20    21   ar
    36    21    22   ar
    37    22    23   ar
    38    23    24    1
    39    23    25   ar
    40    25    26   ar
    41     6     1    1
    42    19    13   ar
    43    26    20   ar
    44    32    28   ar
    45    38    33   ar
    46    10    11    1
@<TRIPOS>MOLECULE
*****
 42 46 0 0 0
SMALL
GASTEIGER

@<TRIPOS>ATOM
      1 N         140.4078  138.3277  161.6846 N.3     1  UNL1       -0.2626
      2 C         139.5613  138.5205  160.4615 C.3     1  UNL1        0.0900
      3 C         140.1998  138.5495  159.1045 C.3     1  UNL1        0.0899
      4 N         141.6849  138.3856  158.9707 N.3     1  UNL1       -0.2665
      5 C         142.5314  138.1928  160.1939 C.3     1  UNL1        0.0899
      6 C         141.8929  138.1639  161.5508 C.3     1  UNL1        0.0900
      7 C         139.7694  138.2987  163.0417 C.3     1  UNL1        0.1585
      8 O         138.0960  140.0739  163.9354 O.2     1  UNL1       -0.2736
      9 C         139.5034  139.5811  163.7730 C.2     1  UNL1        0.2393
     10 N         140.6449  140.3707  164.3419 N.am    1  UNL1       -0.2975
     11 H         141.5686  140.0472  164.2354 H       1  UNL1        0.1500
     12 C         140.3790  141.6530  165.0732 C.3     1  UNL1        0.1169
     13 C         140.2663  141.6540  166.5689 C.ar    1  UNL1       -0.0002
     14 C         140.6135  142.8889  167.3465 C.ar    1  UNL1       -0.0001
     15 C         140.5008  142.8898  168.8422 C.ar    1  UNL1        0.0294
     16 C         140.0410  141.6558  169.5605 C.ar    1  UNL1        0.1401
     17 F         139.9284  141.6567  171.0562 F       1  UNL1       -0.2042
     18 C         139.6939  140.4209  168.7830 C.ar    1  UNL1        0.0294
     19 C         139.8066  140.4200  167.2872 C.ar    1  UNL1       -0.0001
     20 C         140.2257  142.9345  164.3087 C.ar    1  UNL1       -0.0002
     21 C         138.8582  143.4922  164.0463 C.ar    1  UNL1       -0.0001
     22 C         138.7049  144.7737  163.2818 C.ar    1  UNL1        0.0294
     23 C         139.9191  145.4974  162.7798 C.ar    1  UNL1        0.1401
     24 F         139.7658  146.7788  162.0153 F       1  UNL1       -0.2042
     25 C         141.2865  144.9396  163.0422 C.ar    1  UNL1        0.0294
     26 C         141.4398  143.6582  163.8067 C.ar    1  UNL1       -0.0001
     27 C         142.3233  138.4146  157.6136 C.3     1  UNL1        0.1008
     28 C         142.8861  137.1561  157.0225 C.ar    1  UNL1        0.0129
     29 C         143.5982  137.0414  155.7073 C.ar    1  UNL1        0.0176
     30 C         143.9878  135.6058  155.5148 C.ar    1  UNL1        0.0812
     31 N         143.5164  134.8331  156.7110 N.ar    1  UNL1       -0.2892
     32 C         142.8356  135.7913  157.6428 C.ar    1  UNL1        0.0785
     33 C         143.6947  133.3608  156.9359 C.ar    1  UNL1        0.1477
     34 C         144.8271  132.8634  157.7844 C.ar    1  UNL1        0.0374
     35 C         145.0054  131.3911  158.0093 C.ar    1  UNL1        0.0085
     36 C         144.0512  130.4163  157.3856 C.ar    1  UNL1        0.0906
     37 C         142.9187  130.9136  156.5370 C.ar    1  UNL1        0.1044
     38 N         142.7405  132.3859  156.3122 N.ar    1  UNL1       -0.2265
     39 C         144.2295  128.9440  157.6105 C.3     1  UNL1        0.4200
     40 F         144.4077  127.4717  157.8354 F       1  UNL1       -0.1658
     41 F         145.0857  128.8600  156.3818 F       1  UNL1       -0.1658
     42 F         143.3732  129.0279  158.8393 F       1  UNL1       -0.1658
@<TRIPOS>BOND
     1     8     9    2
     2     9     7    1
     3     7     1    1
     4     1     2    1
     5     2     3    1
     6     3     4    1
     7     4    27    1
     8    27    28    1
     9    28    29   ar
    10    29    30   ar
    11    30    31   ar
    12    31    33    1
    13    33    34   ar
    14    34    35   ar
    15    35    36   ar
    16    36    39    1
    17    39    40    1
    18    39    41    1
    19    39    42    1
    20    36    37   ar
    21    37    38   ar
    22    31    32   ar
    23     4     5    1
    24     5     6    1
    25     9    10   am
    26    10    12    1
    27    12    13    1
    28    13    14   ar
    29    14    15   ar
    30    15    16   ar
    31    16    17    1
    32    16    18   ar
    33    18    19   ar
    34    12    20    1
    35    20    21   ar
    36    21    22   ar
    37    22    23   ar
    38    23    24    1
    39    23    25   ar
    40    25    26   ar
    41     6     1    1
    42    19    13   ar
    43    26    20   ar
    44    32    28   ar
    45    38    33   ar
    46    10    11    1
@<TRIPOS>MOLECULE
*****
 42 46 0 0 0
SMALL
GASTEIGER

@<TRIPOS>ATOM
      1 N         140.4175  138.2480  161.6479 N.3     1  UNL1       -0.2626
      2 C         141.9043  138.0904  161.5279 C.3     1  UNL1        0.0900
      3 C         142.5558  138.1276  160.1774 C.3     1  UNL1        0.0899
      4 N         141.7205  138.3223  158.9468 N.3     1  UNL1       -0.2665
      5 C         140.2337  138.4799  159.0668 C.3     1  UNL1        0.0899
      6 C         139.5822  138.4427  160.4173 C.3     1  UNL1        0.0900
      7 C         139.7659  138.2108  162.9985 C.3     1  UNL1        0.1585
      8 O         138.0525  139.9302  163.9248 O.2     1  UNL1       -0.2736
      9 C         139.4724  139.4898  163.7251 C.2     1  UNL1        0.2393
     10 N         140.5989  140.3285  164.2521 N.am    1  UNL1       -0.2975
     11 H         141.5309  140.0395  164.1211 H       1  UNL1        0.1500
     12 C         140.3055  141.6075  164.9787 C.3     1  UNL1        0.1169
     13 C         140.1013  142.8780  164.2080 C.ar    1  UNL1       -0.0002
     14 C         138.7130  143.3863  163.9540 C.ar    1  UNL1       -0.0001
     15 C         138.5088  144.6568  163.1833 C.ar    1  UNL1        0.0294
     16 C         139.6928  145.4191  162.6666 C.ar    1  UNL1        0.1401
     17 F         139.4886  146.6896  161.8958 F       1  UNL1       -0.2042
     18 C         141.0810  144.9109  162.9205 C.ar    1  UNL1        0.0294
     19 C         141.2853  143.6403  163.6913 C.ar    1  UNL1       -0.0001
     20 C         140.2163  141.6160  166.4761 C.ar    1  UNL1       -0.0002
     21 C         139.7531  140.3906  167.2067 C.ar    1  UNL1       -0.0001
     22 C         139.6639  140.3991  168.7041 C.ar    1  UNL1        0.0294
     23 C         140.0378  141.6330  169.4707 C.ar    1  UNL1        0.1401
     24 F         139.9485  141.6414  170.9680 F       1  UNL1       -0.2042
     25 C         140.5009  142.8583  168.7400 C.ar    1  UNL1        0.0294
     26 C         140.5901  142.8498  167.2427 C.ar    1  UNL1       -0.0001
     27 C         142.3721  138.3595  157.5962 C.3     1  UNL1        0.1008
     28 C         142.9197  137.1002  156.9927 C.ar    1  UNL1        0.0129
     29 C         143.5869  136.9814  155.6545 C.ar    1  UNL1        0.0176
     30 C         143.9757  135.5463  155.4562 C.ar    1  UNL1        0.0812
     31 N         143.5488  134.7781  156.6718 N.ar    1  UNL1       -0.2892
     32 C         142.8961  135.7385  157.6214 C.ar    1  UNL1        0.0785
     33 C         143.7408  133.3078  156.8980 C.ar    1  UNL1        0.1477
     34 C         142.8179  132.3217  156.2454 C.ar    1  UNL1        0.0374
     35 C         143.0099  130.8514  156.4717 C.ar    1  UNL1        0.0085
     36 C         144.1248  130.3671  157.3505 C.ar    1  UNL1        0.0906
     37 C         145.0477  131.3531  158.0032 C.ar    1  UNL1        0.1044
     38 N         144.8557  132.8235  157.7769 N.ar    1  UNL1       -0.2265
     39 C         144.3168  128.8968  157.5768 C.3     1  UNL1        0.4200
     40 F         144.5088  127.4264  157.8031 F       1  UNL1       -0.1658
     41 F         143.8223  128.6185  156.1882 F       1  UNL1       -0.1658
     42 F         144.8112  129.1750  158.9654 F       1  UNL1       -0.1658
@<TRIPOS>BOND
     1     8     9    2
     2     9     7    1
     3     7     1    1
     4     1     2    1
     5     2     3    1
     6     3     4    1
     7     4    27    1
     8    27    28    1
     9    28    29   ar
    10    29    30   ar
    11    30    31   ar
    12    31    33    1
    13    33    34   ar
    14    34    35   ar
    15    35    36   ar
    16    36    39    1
    17    39    40    1
    18    39    41    1
    19    39    42    1
    20    36    37   ar
    21    37    38   ar
    22    31    32   ar
    23     4     5    1
    24     5     6    1
    25     9    10   am
    26    10    12    1
    27    12    13    1
    28    13    14   ar
    29    14    15   ar
    30    15    16   ar
    31    16    17    1
    32    16    18   ar
    33    18    19   ar
    34    12    20    1
    35    20    21   ar
    36    21    22   ar
    37    22    23   ar
    38    23    24    1
    39    23    25   ar
    40    25    26   ar
    41     6     1    1
    42    19    13   ar
    43    26    20   ar
    44    32    28   ar
    45    38    33   ar
    46    10    11    1
@<TRIPOS>MOLECULE
*****
 42 46 0 0 0
SMALL
GASTEIGER

@<TRIPOS>ATOM
      1 N         141.5480  138.3177  162.3776 N.3     1  UNL1       -0.2626
      2 C         140.4877  138.5434  161.3409 C.3     1  UNL1        0.0900
      3 C         140.8442  138.5119  159.8843 C.3     1  UNL1        0.0899
      4 N         142.2611  138.2545  159.4643 N.3     1  UNL1       -0.2665
      5 C         143.3214  138.0288  160.5010 C.3     1  UNL1        0.0899
      6 C         142.9648  138.0604  161.9576 C.3     1  UNL1        0.0900
      7 C         141.1915  138.3493  163.8343 C.3     1  UNL1        0.1585
      8 O         139.5242  139.8177  165.1811 O.2     1  UNL1       -0.2736
      9 C         140.8473  139.6516  164.4941 C.2     1  UNL1        0.2393
     10 N         141.8262  140.7879  164.4671 N.am    1  UNL1       -0.2975
     11 H         142.6945  140.6789  164.0162 H       1  UNL1        0.1500
     12 C         141.4820  142.0902  165.1269 C.3     1  UNL1        0.1169
     13 C         141.6753  142.2562  166.6051 C.ar    1  UNL1       -0.0002
     14 C         143.0472  142.1378  167.2000 C.ar    1  UNL1       -0.0001
     15 C         143.2405  142.3037  168.6782 C.ar    1  UNL1        0.0294
     16 C         142.0620  142.5881  169.5615 C.ar    1  UNL1        0.1401
     17 F         142.2553  142.7540  171.0396 F       1  UNL1       -0.2042
     18 C         140.6901  142.7064  168.9666 C.ar    1  UNL1        0.0294
     19 C         140.4967  142.5405  167.4883 C.ar    1  UNL1       -0.0001
     20 C         140.9444  143.2266  164.3085 C.ar    1  UNL1       -0.0002
     21 C         141.8671  144.3076  163.8288 C.ar    1  UNL1       -0.0001
     22 C         141.3296  145.4440  163.0105 C.ar    1  UNL1        0.0294
     23 C         139.8694  145.4994  162.6718 C.ar    1  UNL1        0.1401
     24 F         139.3319  146.6358  161.8535 F       1  UNL1       -0.2042
     25 C         138.9467  144.4185  163.1516 C.ar    1  UNL1        0.0294
     26 C         139.4842  143.2821  163.9699 C.ar    1  UNL1       -0.0001
     27 C         142.6176  138.2229  158.0076 C.3     1  UNL1        0.1008
     28 C         142.4065  136.9698  157.2108 C.ar    1  UNL1        0.0129
     29 C         141.2498  136.6900  156.2976 C.ar    1  UNL1        0.0176
     30 C         141.4434  135.3236  155.7097 C.ar    1  UNL1        0.0812
     31 N         142.7197  134.7590  156.2595 N.ar    1  UNL1       -0.2892
     32 C         143.3149  135.7763  157.1872 C.ar    1  UNL1        0.0785
     33 C         143.2991  133.4132  155.9381 C.ar    1  UNL1        0.1477
     34 C         144.3591  132.8230  156.8200 C.ar    1  UNL1        0.0374
     35 C         144.9384  131.4772  156.4985 C.ar    1  UNL1        0.0085
     36 C         144.4578  130.7218  155.2952 C.ar    1  UNL1        0.0906
     37 C         143.3977  131.3120  154.4132 C.ar    1  UNL1        0.1044
     38 N         142.8184  132.6578  154.7346 N.ar    1  UNL1       -0.2265
     39 C         145.0371  129.3761  154.9737 C.3     1  UNL1        0.4200
     40 F         145.6165  128.0303  154.6523 F       1  UNL1       -0.1658
     41 F         145.0674  129.7368  153.5181 F       1  UNL1       -0.1658
     42 F         145.0069  129.0153  156.4294 F       1  UNL1       -0.1658
@<TRIPOS>BOND
     1     8     9    2
     2     9     7    1
     3     7     1    1
     4     1     2    1
     5     2     3    1
     6     3     4    1
     7     4    27    1
     8    27    28    1
     9    28    29   ar
    10    29    30   ar
    11    30    31   ar
    12    31    33    1
    13    33    34   ar
    14    34    35   ar
    15    35    36   ar
    16    36    39    1
    17    39    40    1
    18    39    41    1
    19    39    42    1
    20    36    37   ar
    21    37    38   ar
    22    31    32   ar
    23     4     5    1
    24     5     6    1
    25     9    10   am
    26    10    12    1
    27    12    13    1
    28    13    14   ar
    29    14    15   ar
    30    15    16   ar
    31    16    17    1
    32    16    18   ar
    33    18    19   ar
    34    12    20    1
    35    20    21   ar
    36    21    22   ar
    37    22    23   ar
    38    23    24    1
    39    23    25   ar
    40    25    26   ar
    41     6     1    1
    42    19    13   ar
    43    26    20   ar
    44    32    28   ar
    45    38    33   ar
    46    10    11    1
@<TRIPOS>MOLECULE
*****
 42 46 0 0 0
SMALL
GASTEIGER

@<TRIPOS>ATOM
      1 N         138.5785  139.4430  161.7858 N.3     1  UNL1       -0.2626
      2 C         139.6430  138.5692  161.1915 C.3     1  UNL1        0.0900
      3 C         139.8455  138.5392  159.7056 C.3     1  UNL1        0.0899
      4 N         138.9834  139.3828  158.8140 N.3     1  UNL1       -0.2665
      5 C         137.9189  140.2566  159.4083 C.3     1  UNL1        0.0899
      6 C         137.7164  140.2867  160.8942 C.3     1  UNL1        0.0900
      7 C         138.3760  139.4731  163.2719 C.3     1  UNL1        0.1585
      8 O         139.5643  141.5606  164.2619 O.2     1  UNL1       -0.2736
      9 C         139.4269  140.0704  164.1600 C.2     1  UNL1        0.2393
     10 N         140.3404  139.1775  164.9464 N.am    1  UNL1       -0.2975
     11 H         140.2502  138.1994  164.8795 H       1  UNL1        0.1500
     12 C         141.3913  139.7747  165.8345 C.3     1  UNL1        0.1169
     13 C         141.1507  139.8861  167.3109 C.ar    1  UNL1       -0.0002
     14 C         139.7911  140.2593  167.8232 C.ar    1  UNL1       -0.0001
     15 C         139.5505  140.3707  169.2995 C.ar    1  UNL1        0.0294
     16 C         140.6694  140.1088  170.2637 C.ar    1  UNL1        0.1401
     17 F         140.4288  140.2201  171.7400 F       1  UNL1       -0.2042
     18 C         142.0289  139.7355  169.7514 C.ar    1  UNL1        0.0294
     19 C         142.2696  139.6242  168.2750 C.ar    1  UNL1       -0.0001
     20 C         142.6827  140.2607  165.2463 C.ar    1  UNL1       -0.0002
     21 C         143.6574  139.2805  164.6639 C.ar    1  UNL1       -0.0001
     22 C         144.9489  139.7664  164.0758 C.ar    1  UNL1        0.0294
     23 C         145.2657  141.2326  164.0699 C.ar    1  UNL1        0.1401
     24 F         146.5572  141.7185  163.4818 F       1  UNL1       -0.2042
     25 C         144.2910  142.2127  164.6523 C.ar    1  UNL1        0.0294
     26 C         142.9996  141.7268  165.2405 C.ar    1  UNL1       -0.0001
     27 C         139.1859  139.3527  157.3279 C.3     1  UNL1        0.1008
     28 C         140.3598  138.6228  156.7456 C.ar    1  UNL1        0.0129
     29 C         141.4854  139.2402  155.9700 C.ar    1  UNL1        0.0176
     30 C         142.4355  138.1464  155.5816 C.ar    1  UNL1        0.0812
     31 N         141.8970  136.8528  156.1173 N.ar    1  UNL1       -0.2892
     32 C         140.6142  137.1473  156.8367 C.ar    1  UNL1        0.0785
     33 C         142.5302  135.5021  155.9611 C.ar    1  UNL1        0.1477
     34 C         142.2796  134.6951  154.7218 C.ar    1  UNL1        0.0374
     35 C         142.9128  133.3443  154.5656 C.ar    1  UNL1        0.0085
     36 C         143.7966  132.8005  155.6486 C.ar    1  UNL1        0.0906
     37 C         144.0473  133.6075  156.8879 C.ar    1  UNL1        0.1044
     38 N         143.4141  134.9582  157.0442 N.ar    1  UNL1       -0.2265
     39 C         144.4298  131.4497  155.4923 C.3     1  UNL1        0.4200
     40 F         145.0631  130.0990  155.3361 F       1  UNL1       -0.1658
     41 F         143.3933  131.0818  154.4724 F       1  UNL1       -0.1658
     42 F         145.4665  131.8177  156.5122 F       1  UNL1       -0.1658
@<TRIPOS>BOND
     1     8     9    2
     2     9     7    1
     3     7     1    1
     4     1     2    1
     5     2     3    1
     6     3     4    1
     7     4    27    1
     8    27    28    1
     9    28    29   ar
    10    29    30   ar
    11    30    31   ar
    12    31    33    1
    13    33    34   ar
    14    34    35   ar
    15    35    36   ar
    16    36    39    1
    17    39    40    1
    18    39    41    1
    19    39    42    1
    20    36    37   ar
    21    37    38   ar
    22    31    32   ar
    23     4     5    1
    24     5     6    1
    25     9    10   am
    26    10    12    1
    27    12    13    1
    28    13    14   ar
    29    14    15   ar
    30    15    16   ar
    31    16    17    1
    32    16    18   ar
    33    18    19   ar
    34    12    20    1
    35    20    21   ar
    36    21    22   ar
    37    22    23   ar
    38    23    24    1
    39    23    25   ar
    40    25    26   ar
    41     6     1    1
    42    19    13   ar
    43    26    20   ar
    44    32    28   ar
    45    38    33   ar
    46    10    11    1
@<TRIPOS>MOLECULE
*****
 42 46 0 0 0
SMALL
GASTEIGER

@<TRIPOS>ATOM
      1 N         137.9013  141.6395  162.0028 N.3     1  UNL1       -0.2626
      2 C         138.3528  142.6405  160.9810 C.3     1  UNL1        0.0900
      3 C         138.5647  142.2162  159.5580 C.3     1  UNL1        0.0899
      4 N         138.3252  140.7908  159.1568 N.3     1  UNL1       -0.2665
      5 C         137.8737  139.7898  160.1785 C.3     1  UNL1        0.0899
      6 C         137.6618  140.2141  161.6015 C.3     1  UNL1        0.0900
      7 C         137.6893  142.0638  163.4259 C.3     1  UNL1        0.1585
      8 O         139.6474  143.3376  164.5630 O.2     1  UNL1       -0.2736
      9 C         138.8444  142.0836  164.3826 C.2     1  UNL1        0.2393
     10 N         139.1965  140.8492  165.1589 N.am    1  UNL1       -0.2975
     11 H         138.6695  140.0262  165.0405 H       1  UNL1        0.1500
     12 C         140.3516  140.8690  166.1156 C.3     1  UNL1        0.1169
     13 C         141.6951  140.3642  165.6798 C.ar    1  UNL1       -0.0002
     14 C         142.2993  139.1656  166.3494 C.ar    1  UNL1       -0.0001
     15 C         143.6429  138.6607  165.9136 C.ar    1  UNL1        0.0294
     16 C         144.3822  139.3544  164.8080 C.ar    1  UNL1        0.1401
     17 F         145.7258  138.8496  164.3722 F       1  UNL1       -0.2042
     18 C         143.7781  140.5529  164.1384 C.ar    1  UNL1        0.0294
     19 C         142.4345  141.0578  164.5742 C.ar    1  UNL1       -0.0001
     20 C         140.1631  141.3936  167.5082 C.ar    1  UNL1       -0.0002
     21 C         139.5646  140.5147  168.5662 C.ar    1  UNL1       -0.0001
     22 C         139.3762  141.0393  169.9587 C.ar    1  UNL1        0.0294
     23 C         139.7862  142.4428  170.2934 C.ar    1  UNL1        0.1401
     24 F         139.5978  142.9674  171.6859 F       1  UNL1       -0.2042
     25 C         140.3847  143.3217  169.2354 C.ar    1  UNL1        0.0294
     26 C         140.5732  142.7971  167.8428 C.ar    1  UNL1       -0.0001
     27 C         138.5372  140.3665  157.7337 C.3     1  UNL1        0.1008
     28 C         139.7671  139.5952  157.3563 C.ar    1  UNL1        0.0129
     29 C         141.1360  140.1692  157.1403 C.ar    1  UNL1        0.0176
     30 C         142.0590  139.0433  156.7792 C.ar    1  UNL1        0.0812
     31 N         141.2605  137.7734  156.7719 N.ar    1  UNL1       -0.2892
     32 C         139.8440  138.1146  157.1286 C.ar    1  UNL1        0.0785
     33 C         141.7861  136.4031  156.4623 C.ar    1  UNL1        0.1477
     34 C         141.1093  135.5568  155.4253 C.ar    1  UNL1        0.0374
     35 C         141.6350  134.1865  155.1157 C.ar    1  UNL1        0.0085
     36 C         142.8375  133.6625  155.8432 C.ar    1  UNL1        0.0906
     37 C         143.5144  134.5088  156.8803 C.ar    1  UNL1        0.1044
     38 N         142.9887  135.8791  157.1899 N.ar    1  UNL1       -0.2265
     39 C         143.3632  132.2921  155.5336 C.3     1  UNL1        0.4200
     40 F         143.8888  130.9218  155.2240 F       1  UNL1       -0.1658
     41 F         144.7462  132.7389  155.9044 F       1  UNL1       -0.1658
     42 F         141.9800  131.8453  155.1628 F       1  UNL1       -0.1658
@<TRIPOS>BOND
     1     8     9    2
     2     9     7    1
     3     7     1    1
     4     1     2    1
     5     2     3    1
     6     3     4    1
     7     4    27    1
     8    27    28    1
     9    28    29   ar
    10    29    30   ar
    11    30    31   ar
    12    31    33    1
    13    33    34   ar
    14    34    35   ar
    15    35    36   ar
    16    36    39    1
    17    39    40    1
    18    39    41    1
    19    39    42    1
    20    36    37   ar
    21    37    38   ar
    22    31    32   ar
    23     4     5    1
    24     5     6    1
    25     9    10   am
    26    10    12    1
    27    12    13    1
    28    13    14   ar
    29    14    15   ar
    30    15    16   ar
    31    16    17    1
    32    16    18   ar
    33    18    19   ar
    34    12    20    1
    35    20    21   ar
    36    21    22   ar
    37    22    23   ar
    38    23    24    1
    39    23    25   ar
    40    25    26   ar
    41     6     1    1
    42    19    13   ar
    43    26    20   ar
    44    32    28   ar
    45    38    33   ar
    46    10    11    1
@<TRIPOS>MOLECULE
*****
 42 46 0 0 0
SMALL
GASTEIGER

@<TRIPOS>ATOM
      1 N         137.8236  140.7163  161.7033 N.3     1  UNL1       -0.2626
      2 C         138.1416  139.2860  161.3822 C.3     1  UNL1        0.0900
      3 C         138.6476  138.9181  160.0190 C.3     1  UNL1        0.0899
      4 N         138.8357  139.9804  158.9768 N.3     1  UNL1       -0.2665
      5 C         138.5177  141.4107  159.2979 C.3     1  UNL1        0.0899
      6 C         138.0117  141.7786  160.6612 C.3     1  UNL1        0.0900
      7 C         137.3175  141.0843  163.0666 C.3     1  UNL1        0.1585
      8 O         137.7500  143.1146  164.6289 O.2     1  UNL1       -0.2736
      9 C         138.2075  141.8207  164.0234 C.2     1  UNL1        0.2393
     10 N         139.5551  141.2632  164.3749 N.am    1  UNL1       -0.2975
     11 H         139.8553  140.4140  163.9775 H       1  UNL1        0.1500
     12 C         140.4450  141.9996  165.3317 C.3     1  UNL1        0.1169
     13 C         140.3360  141.7439  166.8056 C.ar    1  UNL1       -0.0002
     14 C         140.6439  142.8403  167.7820 C.ar    1  UNL1       -0.0001
     15 C         140.5348  142.5845  169.2559 C.ar    1  UNL1        0.0294
     16 C         140.1178  141.2324  169.7537 C.ar    1  UNL1        0.1401
     17 F         140.0088  140.9766  171.2276 F       1  UNL1       -0.2042
     18 C         139.8099  140.1360  168.7775 C.ar    1  UNL1        0.0294
     19 C         139.9190  140.3917  167.3034 C.ar    1  UNL1       -0.0001
     20 C         141.4441  142.9918  164.8145 C.ar    1  UNL1       -0.0002
     21 C         142.9083  142.6675  164.8454 C.ar    1  UNL1       -0.0001
     22 C         143.9073  143.6597  164.3283 C.ar    1  UNL1        0.0294
     23 C         143.4422  144.9762  163.7802 C.ar    1  UNL1        0.1401
     24 F         144.4413  145.9684  163.2631 F       1  UNL1       -0.2042
     25 C         141.9781  145.3005  163.7494 C.ar    1  UNL1        0.0294
     26 C         140.9790  144.3084  164.2665 C.ar    1  UNL1       -0.0001
     27 C         139.3418  139.6124  157.6135 C.3     1  UNL1        0.1008
     28 C         140.6052  138.8163  157.4722 C.ar    1  UNL1        0.0129
     29 C         141.9930  139.3062  157.7616 C.ar    1  UNL1        0.0176
     30 C         142.9481  138.1832  157.4849 C.ar    1  UNL1        0.0812
     31 N         142.1505  136.9991  157.0245 N.ar    1  UNL1       -0.2892
     32 C         140.7025  137.3905  157.0166 C.ar    1  UNL1        0.0785
     33 C         142.7038  135.6591  156.6395 C.ar    1  UNL1        0.1477
     34 C         142.4499  135.1089  155.2675 C.ar    1  UNL1        0.0374
     35 C         143.0032  133.7689  154.8825 C.ar    1  UNL1        0.0085
     36 C         143.8104  132.9791  155.8697 C.ar    1  UNL1        0.0906
     37 C         144.0644  133.5293  157.2418 C.ar    1  UNL1        0.1044
     38 N         143.5111  134.8693  157.6267 N.ar    1  UNL1       -0.2265
     39 C         144.3638  131.6391  155.4847 C.3     1  UNL1        0.4200
     40 F         144.9170  130.2991  155.0997 F       1  UNL1       -0.1658
     41 F         145.4179  131.7702  156.5437 F       1  UNL1       -0.1658
     42 F         143.3095  131.5080  154.4257 F       1  UNL1       -0.1658
@<TRIPOS>BOND
     1     8     9    2
     2     9     7    1
     3     7     1    1
     4     1     2    1
     5     2     3    1
     6     3     4    1
     7     4    27    1
     8    27    28    1
     9    28    29   ar
    10    29    30   ar
    11    30    31   ar
    12    31    33    1
    13    33    34   ar
    14    34    35   ar
    15    35    36   ar
    16    36    39    1
    17    39    40    1
    18    39    41    1
    19    39    42    1
    20    36    37   ar
    21    37    38   ar
    22    31    32   ar
    23     4     5    1
    24     5     6    1
    25     9    10   am
    26    10    12    1
    27    12    13    1
    28    13    14   ar
    29    14    15   ar
    30    15    16   ar
    31    16    17    1
    32    16    18   ar
    33    18    19   ar
    34    12    20    1
    35    20    21   ar
    36    21    22   ar
    37    22    23   ar
    38    23    24    1
    39    23    25   ar
    40    25    26   ar
    41     6     1    1
    42    19    13   ar
    43    26    20   ar
    44    32    28   ar
    45    38    33   ar
    46    10    11    1
@<TRIPOS>MOLECULE
*****
 42 46 0 0 0
SMALL
GASTEIGER

@<TRIPOS>ATOM
      1 N         137.8675  140.6467  161.8765 N.3     1  UNL1       -0.2626
      2 C         138.1549  139.2135  161.5399 C.3     1  UNL1        0.0900
      3 C         138.6101  138.8442  160.1592 C.3     1  UNL1        0.0899
      4 N         138.7779  139.9080  159.1151 N.3     1  UNL1       -0.2665
      5 C         138.4906  141.3412  159.4517 C.3     1  UNL1        0.0899
      6 C         138.0354  141.7106  160.8324 C.3     1  UNL1        0.0900
      7 C         137.4123  141.0162  163.2572 C.3     1  UNL1        0.1585
      8 O         137.9066  143.0921  164.7390 O.2     1  UNL1       -0.2736
      9 C         138.3307  141.7692  164.1733 C.2     1  UNL1        0.2393
     10 N         139.6733  141.1993  164.5239 N.am    1  UNL1       -0.2975
     11 H         139.9516  140.3310  164.1526 H       1  UNL1        0.1500
     12 C         140.5917  141.9523  165.4400 C.3     1  UNL1        0.1169
     13 C         141.5569  142.9533  164.8775 C.ar    1  UNL1       -0.0002
     14 C         141.0453  144.1878  164.1962 C.ar    1  UNL1       -0.0001
     15 C         142.0105  145.1887  163.6337 C.ar    1  UNL1        0.0294
     16 C         143.4874  144.9552  163.7524 C.ar    1  UNL1        0.1401
     17 F         144.4526  145.9561  163.1899 F       1  UNL1       -0.2042
     18 C         143.9991  143.7207  164.4337 C.ar    1  UNL1        0.0294
     19 C         143.0339  142.7197  164.9962 C.ar    1  UNL1       -0.0001
     20 C         140.5449  141.7045  166.9186 C.ar    1  UNL1       -0.0002
     21 C         140.4637  142.8607  167.8707 C.ar    1  UNL1       -0.0001
     22 C         140.4169  142.6128  169.3494 C.ar    1  UNL1        0.0294
     23 C         140.4513  141.2087  169.8759 C.ar    1  UNL1        0.1401
     24 F         140.4045  140.9609  171.3546 F       1  UNL1       -0.2042
     25 C         140.5326  140.0525  168.9238 C.ar    1  UNL1        0.0294
     26 C         140.5794  140.3004  167.4452 C.ar    1  UNL1       -0.0001
     27 C         139.2332  139.5386  157.7344 C.3     1  UNL1        0.1008
     28 C         140.5180  138.7884  157.5439 C.ar    1  UNL1        0.0129
     29 C         141.8989  139.3417  157.7364 C.ar    1  UNL1        0.0176
     30 C         142.8819  138.2485  157.4390 C.ar    1  UNL1        0.0812
     31 N         142.1086  137.0195  157.0626 N.ar    1  UNL1       -0.2892
     32 C         140.6477  137.3532  157.1275 C.ar    1  UNL1        0.0785
     33 C         142.6936  135.6902  156.6874 C.ar    1  UNL1        0.1477
     34 C         142.5139  135.1574  155.2968 C.ar    1  UNL1        0.0374
     35 C         143.0988  133.8281  154.9215 C.ar    1  UNL1        0.0085
     36 C         143.8635  133.0317  155.9368 C.ar    1  UNL1        0.0906
     37 C         144.0433  133.5645  157.3274 C.ar    1  UNL1        0.1044
     38 N         143.4583  134.8938  157.7027 N.ar    1  UNL1       -0.2265
     39 C         144.4485  131.7025  155.5615 C.3     1  UNL1        0.4200
     40 F         145.0335  130.3732  155.1863 F       1  UNL1       -0.1658
     41 F         143.4291  131.5620  154.4701 F       1  UNL1       -0.1658
     42 F         145.4680  131.8429  156.6529 F       1  UNL1       -0.1658
@<TRIPOS>BOND
     1     8     9    2
     2     9     7    1
     3     7     1    1
     4     1     2    1
     5     2     3    1
     6     3     4    1
     7     4    27    1
     8    27    28    1
     9    28    29   ar
    10    29    30   ar
    11    30    31   ar
    12    31    33    1
    13    33    34   ar
    14    34    35   ar
    15    35    36   ar
    16    36    39    1
    17    39    40    1
    18    39    41    1
    19    39    42    1
    20    36    37   ar
    21    37    38   ar
    22    31    32   ar
    23     4     5    1
    24     5     6    1
    25     9    10   am
    26    10    12    1
    27    12    13    1
    28    13    14   ar
    29    14    15   ar
    30    15    16   ar
    31    16    17    1
    32    16    18   ar
    33    18    19   ar
    34    12    20    1
    35    20    21   ar
    36    21    22   ar
    37    22    23   ar
    38    23    24    1
    39    23    25   ar
    40    25    26   ar
    41     6     1    1
    42    19    13   ar
    43    26    20   ar
    44    32    28   ar
    45    38    33   ar
    46    10    11    1
