@<TRIPOS>MOLECULE
*****
 28 31 0 0 0
SMALL
GASTEIGER

@<TRIPOS>ATOM
      1 C         141.8970  140.2551  166.4159 C.2     1  UNL1        0.0080
      2 C         142.4253  141.0336  167.5842 C.2     1  UNL1        0.0135
      3 C         141.5862  141.1986  168.8166 C.3     1  UNL1        0.1542
      4 C         142.9535  141.8121  168.7525 C.3     1  UNL1        0.0614
      5 C         143.4818  142.5905  169.9207 C.3     1  UNL1        0.0725
      6 N         142.6427  142.7555  171.1531 N.3     1  UNL1       -0.2972
      7 C         141.2754  142.1421  171.2172 C.3     1  UNL1        0.0725
      8 C         140.7472  141.3636  170.0489 C.3     1  UNL1        0.0614
      9 O         140.2189  140.5851  168.8806 O.3     1  UNL1       -0.4785
     10 C         139.6906  139.8067  167.7123 C.ar    1  UNL1        0.1386
     11 C         138.3233  139.1932  167.7764 C.ar    1  UNL1        0.0369
     12 C         137.7950  138.4147  166.6081 C.ar    1  UNL1        0.0031
     13 C         138.6341  138.2497  165.3757 C.ar    1  UNL1        0.0002
     14 C         140.0014  138.8632  165.3116 C.ar    1  UNL1        0.0030
     15 C         140.5297  139.6417  166.4800 C.ar    1  UNL1        0.0343
     16 H         142.5225  143.7584  171.2954 H       1  UNL1        0.1233
     17 C         143.5737  140.3040  162.9156 C.ar    1  UNL1        0.0830
     18 C         144.4808  139.3684  163.6584 C.ar    1  UNL1        0.0115
     19 C         143.9631  139.2363  165.0601 C.ar    1  UNL1        0.0071
     20 C         142.7360  140.0901  165.1835 C.ar    1  UNL1        0.0295
     21 S         142.4954  140.7500  163.8581 S.2     1  UNL1       -0.0824
     22 N         144.3803  142.0234  161.1429 N.am    1  UNL1       -0.2757
     23 C         143.7192  140.7205  161.4819 C.2     1  UNL1        0.2550
     24 O         143.2036  139.8338  160.3874 O.2     1  UNL1       -0.2694
     25 C         143.3855  143.1123  159.0040 C.3     1  UNL1        0.0233
     26 C         144.5259  142.4399  159.7092 C.3     1  UNL1        0.0938
     27 C         144.8959  142.9100  162.2374 C.3     1  UNL1        0.0938
     28 C         144.0990  144.1036  162.6738 C.3     1  UNL1        0.0233
@<TRIPOS>BOND
     1    25    26    1
     2    26    22    1
     3    22    27    1
     4    27    28    1
     5    22    23   am
     6    23    24    2
     7    23    17    1
     8    17    18   ar
     9    18    19   ar
    10    19    20   ar
    11    20     1    1
    12     1     2    2
    13     2     3    1
    14     3     4    1
    15     4     5    1
    16     5     6    1
    17     6     7    1
    18     7     8    1
    19     3     9    1
    20     9    10    1
    21    10    11   ar
    22    11    12   ar
    23    12    13   ar
    24    13    14   ar
    25    14    15   ar
    26    20    21   ar
    27    21    17   ar
    28    15     1    1
    29     8     3    1
    30    15    10   ar
    31     6    16    1
@<TRIPOS>MOLECULE
*****
 28 31 0 0 0
SMALL
GASTEIGER

@<TRIPOS>ATOM
      1 C         140.7573  142.0867  166.5138 C.2     1  UNL1        0.0080
      2 C         141.3830  142.4302  167.8332 C.2     1  UNL1        0.0135
      3 C         141.0319  141.6390  169.0583 C.3     1  UNL1        0.1542
      4 C         142.0086  142.7736  169.1525 C.3     1  UNL1        0.0614
      5 C         142.6342  143.1170  170.4718 C.3     1  UNL1        0.0725
      6 N         142.2831  142.3259  171.6969 N.3     1  UNL1       -0.2972
      7 C         141.3065  141.1913  171.6027 C.3     1  UNL1        0.0725
      8 C         140.6809  140.8479  170.2834 C.3     1  UNL1        0.0614
      9 O         140.0553  140.5044  168.9640 O.3     1  UNL1       -0.4785
     10 C         139.4297  140.1610  167.6447 C.ar    1  UNL1        0.1386
     11 C         138.4530  139.0264  167.5504 C.ar    1  UNL1        0.0369
     12 C         137.8274  138.6830  166.2311 C.ar    1  UNL1        0.0031
     13 C         138.1784  139.4741  165.0060 C.ar    1  UNL1        0.0002
     14 C         139.1550  140.6087  165.1002 C.ar    1  UNL1        0.0030
     15 C         139.7807  140.9522  166.4196 C.ar    1  UNL1        0.0343
     16 H         141.9028  142.9862  172.3749 H       1  UNL1        0.1233
     17 C         142.1736  143.5897  163.2273 C.ar    1  UNL1        0.0830
     18 C         141.1234  144.6011  163.5796 C.ar    1  UNL1        0.0115
     19 C         140.4650  144.1612  164.8536 C.ar    1  UNL1        0.0071
     20 C         141.1083  142.8779  165.2887 C.ar    1  UNL1        0.0295
     21 S         142.1643  142.5247  164.2836 S.2     1  UNL1       -0.0824
     22 N         142.6140  143.0624  160.7218 N.am    1  UNL1       -0.2757
     23 C         143.0749  143.6352  162.0292 C.2     1  UNL1        0.2550
     24 O         144.4371  144.2536  162.1386 O.2     1  UNL1       -0.2694
     25 C         144.2143  141.8632  159.0631 C.3     1  UNL1        0.0233
     26 C         143.5153  143.1080  159.5237 C.3     1  UNL1        0.0938
     27 C         141.2518  142.4441  160.6125 C.3     1  UNL1        0.0938
     28 C         141.0661  140.9833  160.8984 C.3     1  UNL1        0.0233
@<TRIPOS>BOND
     1    25    26    1
     2    26    22    1
     3    22    27    1
     4    27    28    1
     5    22    23   am
     6    23    24    2
     7    23    17    1
     8    17    18   ar
     9    18    19   ar
    10    19    20   ar
    11    20     1    1
    12     1     2    2
    13     2     3    1
    14     3     4    1
    15     4     5    1
    16     5     6    1
    17     6     7    1
    18     7     8    1
    19     3     9    1
    20     9    10    1
    21    10    11   ar
    22    11    12   ar
    23    12    13   ar
    24    13    14   ar
    25    14    15   ar
    26    20    21   ar
    27    21    17   ar
    28    15     1    1
    29     8     3    1
    30    15    10   ar
    31     6    16    1
@<TRIPOS>MOLECULE
*****
 28 31 0 0 0
SMALL
GASTEIGER

@<TRIPOS>ATOM
      1 C         140.6677  142.0849  166.1025 C.2     1  UNL1        0.0080
      2 C         140.4911  142.4931  167.5351 C.2     1  UNL1        0.0135
      3 C         141.1597  141.7102  168.6259 C.3     1  UNL1        0.1542
      4 C         140.3145  142.9013  168.9676 C.3     1  UNL1        0.0614
      5 C         140.1379  143.3094  170.4001 C.3     1  UNL1        0.0725
      6 N         140.8066  142.5265  171.4910 N.3     1  UNL1       -0.2972
      7 C         141.6518  141.3354  171.1493 C.3     1  UNL1        0.0725
      8 C         141.8284  140.9273  169.7168 C.3     1  UNL1        0.0614
      9 O         142.0050  140.5190  168.2842 O.3     1  UNL1       -0.4785
     10 C         142.1816  140.1109  166.8517 C.ar    1  UNL1        0.1386
     11 C         143.0269  138.9197  166.5099 C.ar    1  UNL1        0.0369
     12 C         143.2035  138.5116  165.0774 C.ar    1  UNL1        0.0031
     13 C         142.5348  139.2945  163.9865 C.ar    1  UNL1        0.0002
     14 C         141.6896  140.4855  164.3282 C.ar    1  UNL1        0.0030
     15 C         141.5129  140.8938  165.7608 C.ar    1  UNL1        0.0343
     16 H         140.0676  142.1950  172.1110 H       1  UNL1        0.1233
     17 C         139.6411  144.2852  163.0743 C.ar    1  UNL1        0.0830
     18 C         138.2989  143.8599  163.5918 C.ar    1  UNL1        0.0115
     19 C         138.5202  142.9839  164.7892 C.ar    1  UNL1        0.0071
     20 C         139.9990  142.8678  165.0117 C.ar    1  UNL1        0.0295
     21 S         140.6917  143.6720  163.9518 S.2     1  UNL1       -0.0824
     22 N         140.0446  144.5653  160.5231 N.am    1  UNL1       -0.2757
     23 C         139.8890  145.1685  161.8876 C.2     1  UNL1        0.2550
     24 O         139.9813  146.6551  162.0655 O.2     1  UNL1       -0.2694
     25 C         140.1757  144.8910  157.9489 C.3     1  UNL1        0.0233
     26 C         140.2926  145.4486  159.3364 C.3     1  UNL1        0.0938
     27 C         139.9524  143.0788  160.3453 C.3     1  UNL1        0.0938
     28 C         138.6171  142.4309  160.1274 C.3     1  UNL1        0.0233
@<TRIPOS>BOND
     1    25    26    1
     2    26    22    1
     3    22    27    1
     4    27    28    1
     5    22    23   am
     6    23    24    2
     7    23    17    1
     8    17    18   ar
     9    18    19   ar
    10    19    20   ar
    11    20     1    1
    12     1     2    2
    13     2     3    1
    14     3     4    1
    15     4     5    1
    16     5     6    1
    17     6     7    1
    18     7     8    1
    19     3     9    1
    20     9    10    1
    21    10    11   ar
    22    11    12   ar
    23    12    13   ar
    24    13    14   ar
    25    14    15   ar
    26    20    21   ar
    27    21    17   ar
    28    15     1    1
    29     8     3    1
    30    15    10   ar
    31     6    16    1
@<TRIPOS>MOLECULE
*****
 28 31 0 0 0
SMALL
GASTEIGER

@<TRIPOS>ATOM
      1 C         140.3752  142.0745  165.3953 C.2     1  UNL1        0.0080
      2 C         140.3998  142.3829  166.8631 C.2     1  UNL1        0.0135
      3 C         140.0106  141.3294  167.8574 C.3     1  UNL1        0.1542
      4 C         140.4244  142.6912  168.3308 C.3     1  UNL1        0.0614
      5 C         140.4490  142.9995  169.7986 C.3     1  UNL1        0.0725
      6 N         140.0598  141.9460  170.7929 N.3     1  UNL1       -0.2972
      7 C         139.6461  140.5842  170.3195 C.3     1  UNL1        0.0725
      8 C         139.6215  140.2759  168.8517 C.3     1  UNL1        0.0614
      9 O         139.5969  139.9675  167.3839 O.3     1  UNL1       -0.4785
     10 C         139.5723  139.6592  165.9162 C.ar    1  UNL1        0.1386
     11 C         139.1585  138.2973  165.4427 C.ar    1  UNL1        0.0369
     12 C         139.1339  137.9890  163.9750 C.ar    1  UNL1        0.0031
     13 C         139.5231  139.0425  162.9806 C.ar    1  UNL1        0.0002
     14 C         139.9368  140.4043  163.4541 C.ar    1  UNL1        0.0030
     15 C         139.9614  140.7127  164.9219 C.ar    1  UNL1        0.0343
     16 H         139.2776  142.3217  171.3289 H       1  UNL1        0.1233
     17 C         140.7198  144.6386  162.5018 C.ar    1  UNL1        0.0830
     18 C         142.0067  144.8599  163.2399 C.ar    1  UNL1        0.0115
     19 C         142.0342  143.9263  164.4137 C.ar    1  UNL1        0.0071
     20 C         140.7643  143.1280  164.4010 C.ar    1  UNL1        0.0295
     21 S         139.9520  143.5682  163.2193 S.2     1  UNL1       -0.0824
     22 N         140.7990  144.9372  159.9222 N.am    1  UNL1       -0.2757
     23 C         140.2781  145.3608  161.2635 C.2     1  UNL1        0.2550
     24 O         139.3156  146.5067  161.3667 O.2     1  UNL1       -0.2694
     25 C         141.3257  145.8829  157.5604 C.3     1  UNL1        0.0233
     26 C         140.3573  145.6594  158.6839 C.3     1  UNL1        0.0938
     27 C         141.7614  143.7913  159.8191 C.3     1  UNL1        0.0938
     28 C         141.2541  142.4093  159.5318 C.3     1  UNL1        0.0233
@<TRIPOS>BOND
     1    25    26    1
     2    26    22    1
     3    22    27    1
     4    27    28    1
     5    22    23   am
     6    23    24    2
     7    23    17    1
     8    17    18   ar
     9    18    19   ar
    10    19    20   ar
    11    20     1    1
    12     1     2    2
    13     2     3    1
    14     3     4    1
    15     4     5    1
    16     5     6    1
    17     6     7    1
    18     7     8    1
    19     3     9    1
    20     9    10    1
    21    10    11   ar
    22    11    12   ar
    23    12    13   ar
    24    13    14   ar
    25    14    15   ar
    26    20    21   ar
    27    21    17   ar
    28    15     1    1
    29     8     3    1
    30    15    10   ar
    31     6    16    1
@<TRIPOS>MOLECULE
*****
 28 31 0 0 0
SMALL
GASTEIGER

@<TRIPOS>ATOM
      1 C         142.2017  141.6324  165.4549 C.2     1  UNL1        0.0080
      2 C         142.2875  140.8316  166.7204 C.2     1  UNL1        0.0135
      3 C         141.3408  141.1103  167.8500 C.3     1  UNL1        0.1542
      4 C         142.3733  140.0308  167.9858 C.3     1  UNL1        0.0614
      5 C         142.4590  139.2299  169.2512 C.3     1  UNL1        0.0725
      6 N         141.5123  139.5087  170.3808 N.3     1  UNL1       -0.2972
      7 C         140.4798  140.5882  170.2450 C.3     1  UNL1        0.0725
      8 C         140.3940  141.3890  168.9796 C.3     1  UNL1        0.0614
      9 O         140.3082  142.1899  167.7141 O.3     1  UNL1       -0.4785
     10 C         140.2224  142.9907  166.4487 C.ar    1  UNL1        0.1386
     11 C         139.1899  144.0703  166.3128 C.ar    1  UNL1        0.0369
     12 C         139.1041  144.8711  165.0474 C.ar    1  UNL1        0.0031
     13 C         140.0509  144.5924  163.9178 C.ar    1  UNL1        0.0002
     14 C         141.0834  143.5129  164.0536 C.ar    1  UNL1        0.0030
     15 C         141.1692  142.7120  165.3191 C.ar    1  UNL1        0.0343
     16 H         142.0834  139.7477  171.1914 H       1  UNL1        0.1233
     17 C         144.0349  140.6707  162.1716 C.ar    1  UNL1        0.0830
     18 C         145.1758  141.1789  163.0024 C.ar    1  UNL1        0.0115
     19 C         144.6279  141.6011  164.3334 C.ar    1  UNL1        0.0071
     20 C         143.1484  141.3537  164.3253 C.ar    1  UNL1        0.0295
     21 S         142.7820  140.7787  162.9892 S.2     1  UNL1       -0.0824
     22 N         144.0197  141.0884  159.6075 N.am    1  UNL1       -0.2757
     23 C         144.1302  140.1465  160.7694 C.2     1  UNL1        0.2550
     24 O         144.3361  138.6801  160.5294 O.2     1  UNL1       -0.2694
     25 C         145.0331  141.2232  157.2189 C.3     1  UNL1        0.0233
     26 C         144.1151  140.5642  158.2053 C.3     1  UNL1        0.0938
     27 C         143.8139  142.5547  159.8475 C.3     1  UNL1        0.0938
     28 C         142.4269  143.1260  159.8554 C.3     1  UNL1        0.0233
@<TRIPOS>BOND
     1    25    26    1
     2    26    22    1
     3    22    27    1
     4    27    28    1
     5    22    23   am
     6    23    24    2
     7    23    17    1
     8    17    18   ar
     9    18    19   ar
    10    19    20   ar
    11    20     1    1
    12     1     2    2
    13     2     3    1
    14     3     4    1
    15     4     5    1
    16     5     6    1
    17     6     7    1
    18     7     8    1
    19     3     9    1
    20     9    10    1
    21    10    11   ar
    22    11    12   ar
    23    12    13   ar
    24    13    14   ar
    25    14    15   ar
    26    20    21   ar
    27    21    17   ar
    28    15     1    1
    29     8     3    1
    30    15    10   ar
    31     6    16    1
@<TRIPOS>MOLECULE
*****
 28 31 0 0 0
SMALL
GASTEIGER

@<TRIPOS>ATOM
      1 C         141.4934  140.3056  165.6985 C.2     1  UNL1        0.0080
      2 C         140.7145  140.3104  166.9804 C.2     1  UNL1        0.0135
      3 C         141.0691  141.2786  168.0698 C.3     1  UNL1        0.1542
      4 C         139.9357  140.3152  168.2624 C.3     1  UNL1        0.0614
      5 C         139.1569  140.3200  169.5443 C.3     1  UNL1        0.0725
      6 N         139.5114  141.2882  170.6337 N.3     1  UNL1       -0.2972
      7 C         140.6448  142.2517  170.4411 C.3     1  UNL1        0.0725
      8 C         141.4236  142.2469  169.1592 C.3     1  UNL1        0.0614
      9 O         142.2025  142.2422  167.8772 O.3     1  UNL1       -0.4785
     10 C         142.9814  142.2374  166.5953 C.ar    1  UNL1        0.1386
     11 C         144.1148  143.2009  166.4027 C.ar    1  UNL1        0.0369
     12 C         144.8936  143.1961  165.1208 C.ar    1  UNL1        0.0031
     13 C         144.5391  142.2278  164.0314 C.ar    1  UNL1        0.0002
     14 C         143.4057  141.2643  164.2240 C.ar    1  UNL1        0.0030
     15 C         142.6268  141.2691  165.5059 C.ar    1  UNL1        0.0343
     16 H         139.7339  140.7332  171.4600 H       1  UNL1        0.1233
     17 C         140.2879  138.4056  162.5358 C.ar    1  UNL1        0.0830
     18 C         140.8988  137.2890  163.3295 C.ar    1  UNL1        0.0115
     19 C         141.4247  137.8648  164.6109 C.ar    1  UNL1        0.0071
     20 C         141.1389  139.3373  164.6091 C.ar    1  UNL1        0.0295
     21 S         140.4363  139.6715  163.3267 S.2     1  UNL1       -0.0824
     22 N         140.4664  138.4292  159.9441 N.am    1  UNL1       -0.2757
     23 C         139.6420  138.2786  161.1880 C.2     1  UNL1        0.2550
     24 O         138.1715  138.0011  161.0843 O.2     1  UNL1       -0.2694
     25 C         139.2144  139.5064  157.9386 C.3     1  UNL1        0.0233
     26 C         139.8205  138.3022  158.5963 C.3     1  UNL1        0.0938
     27 C         141.9369  138.7067  160.0479 C.3     1  UNL1        0.0938
     28 C         142.4334  140.1220  160.0679 C.3     1  UNL1        0.0233
@<TRIPOS>BOND
     1    25    26    1
     2    26    22    1
     3    22    27    1
     4    27    28    1
     5    22    23   am
     6    23    24    2
     7    23    17    1
     8    17    18   ar
     9    18    19   ar
    10    19    20   ar
    11    20     1    1
    12     1     2    2
    13     2     3    1
    14     3     4    1
    15     4     5    1
    16     5     6    1
    17     6     7    1
    18     7     8    1
    19     3     9    1
    20     9    10    1
    21    10    11   ar
    22    11    12   ar
    23    12    13   ar
    24    13    14   ar
    25    14    15   ar
    26    20    21   ar
    27    21    17   ar
    28    15     1    1
    29     8     3    1
    30    15    10   ar
    31     6    16    1
@<TRIPOS>MOLECULE
*****
 28 31 0 0 0
SMALL
GASTEIGER

@<TRIPOS>ATOM
      1 C         140.5643  140.7531  164.8966 C.2     1  UNL1        0.0080
      2 C         141.2752  140.5318  166.1989 C.2     1  UNL1        0.0135
      3 C         141.2113  141.5750  167.2749 C.3     1  UNL1        0.1542
      4 C         141.9861  140.3107  167.5010 C.3     1  UNL1        0.0614
      5 C         142.6970  140.0895  168.8032 C.3     1  UNL1        0.0725
      6 N         142.6331  141.1326  169.8792 N.3     1  UNL1       -0.2972
      7 C         141.8583  142.3969  169.6530 C.3     1  UNL1        0.0725
      8 C         141.1474  142.6181  168.3509 C.3     1  UNL1        0.0614
      9 O         140.4365  142.8393  167.0486 O.3     1  UNL1       -0.4785
     10 C         139.7256  143.0605  165.7465 C.ar    1  UNL1        0.1386
     11 C         138.9508  144.3249  165.5203 C.ar    1  UNL1        0.0369
     12 C         138.2399  144.5460  164.2181 C.ar    1  UNL1        0.0031
     13 C         138.3038  143.5029  163.1421 C.ar    1  UNL1        0.0002
     14 C         139.0786  142.2386  163.3683 C.ar    1  UNL1        0.0030
     15 C         139.7895  142.0174  164.6705 C.ar    1  UNL1        0.0343
     16 H         143.5945  141.4083  170.0795 H       1  UNL1        0.1233
     17 C         141.2682  138.4928  161.8207 C.ar    1  UNL1        0.0830
     18 C         140.1848  137.7166  162.5089 C.ar    1  UNL1        0.0115
     19 C         139.7892  138.4688  163.7449 C.ar    1  UNL1        0.0071
     20 C         140.6282  139.7099  163.8206 C.ar    1  UNL1        0.0295
     21 S         141.5422  139.7248  162.6314 S.2     1  UNL1       -0.0824
     22 N         141.3153  138.4096  159.2245 N.am    1  UNL1       -0.2757
     23 C         141.9567  138.1052  160.5457 C.2     1  UNL1        0.2550
     24 O         143.2867  137.4131  160.5921 O.2     1  UNL1       -0.2694
     25 C         143.0001  138.9517  157.3224 C.3     1  UNL1        0.0233
     26 C         142.0039  138.0220  157.9494 C.3     1  UNL1        0.0938
     27 C         139.9854  139.1017  159.1781 C.3     1  UNL1        0.0938
     28 C         139.9208  140.5991  159.1176 C.3     1  UNL1        0.0233
@<TRIPOS>BOND
     1    25    26    1
     2    26    22    1
     3    22    27    1
     4    27    28    1
     5    22    23   am
     6    23    24    2
     7    23    17    1
     8    17    18   ar
     9    18    19   ar
    10    19    20   ar
    11    20     1    1
    12     1     2    2
    13     2     3    1
    14     3     4    1
    15     4     5    1
    16     5     6    1
    17     6     7    1
    18     7     8    1
    19     3     9    1
    20     9    10    1
    21    10    11   ar
    22    11    12   ar
    23    12    13   ar
    24    13    14   ar
    25    14    15   ar
    26    20    21   ar
    27    21    17   ar
    28    15     1    1
    29     8     3    1
    30    15    10   ar
    31     6    16    1
@<TRIPOS>MOLECULE
*****
 28 31 0 0 0
SMALL
GASTEIGER

@<TRIPOS>ATOM
      1 C         142.3906  142.3032  162.8389 C.2     1  UNL1        0.0080
      2 C         142.8792  141.2249  161.9177 C.2     1  UNL1        0.0135
      3 C         142.5850  141.3031  160.4489 C.3     1  UNL1        0.1542
      4 C         143.3678  140.1467  160.9965 C.3     1  UNL1        0.0614
      5 C         143.8563  139.0684  160.0753 C.3     1  UNL1        0.0725
      6 N         143.5621  139.1466  158.6065 N.3     1  UNL1       -0.2972
      7 C         142.7793  140.3031  158.0589 C.3     1  UNL1        0.0725
      8 C         142.2907  141.3813  158.9801 C.3     1  UNL1        0.0614
      9 O         141.8021  142.4596  159.9014 O.3     1  UNL1       -0.4785
     10 C         141.3136  143.5378  160.8226 C.ar    1  UNL1        0.1386
     11 C         140.5308  144.6944  160.2751 C.ar    1  UNL1        0.0369
     12 C         140.0422  145.7726  161.1963 C.ar    1  UNL1        0.0031
     13 C         140.3365  145.6944  162.6651 C.ar    1  UNL1        0.0002
     14 C         141.1193  144.5380  163.2126 C.ar    1  UNL1        0.0030
     15 C         141.6079  143.4596  162.2914 C.ar    1  UNL1        0.0343
     16 H         143.0462  138.3007  158.3641 H       1  UNL1        0.1233
     17 C         142.6438  141.5445  166.6371 C.ar    1  UNL1        0.0830
     18 C         143.6316  142.6648  166.4988 C.ar    1  UNL1        0.0115
     19 C         143.6570  143.0854  165.0592 C.ar    1  UNL1        0.0071
     20 C         142.6849  142.2250  164.3077 C.ar    1  UNL1        0.0295
     21 S         142.0587  141.2727  165.2829 S.2     1  UNL1       -0.0824
     22 N         141.2819  141.3980  168.8447 N.am    1  UNL1       -0.2757
     23 C         142.3012  140.8228  167.9066 C.2     1  UNL1        0.2550
     24 O         142.9779  139.5257  168.2379 O.2     1  UNL1       -0.2694
     25 C         141.8250  140.8128  171.3171 C.3     1  UNL1        0.0233
     26 C         140.9393  140.6763  170.1142 C.3     1  UNL1        0.0938
     27 C         140.6052  142.6950  168.5134 C.3     1  UNL1        0.0938
     28 C         140.4297  143.7417  169.5735 C.3     1  UNL1        0.0233
@<TRIPOS>BOND
     1    25    26    1
     2    26    22    1
     3    22    27    1
     4    27    28    1
     5    22    23   am
     6    23    24    2
     7    23    17    1
     8    17    18   ar
     9    18    19   ar
    10    19    20   ar
    11    20     1    1
    12     1     2    2
    13     2     3    1
    14     3     4    1
    15     4     5    1
    16     5     6    1
    17     6     7    1
    18     7     8    1
    19     3     9    1
    20     9    10    1
    21    10    11   ar
    22    11    12   ar
    23    12    13   ar
    24    13    14   ar
    25    14    15   ar
    26    20    21   ar
    27    21    17   ar
    28    15     1    1
    29     8     3    1
    30    15    10   ar
    31     6    16    1
@<TRIPOS>MOLECULE
*****
 28 31 0 0 0
SMALL
GASTEIGER

@<TRIPOS>ATOM
      1 C         141.4562  140.5502  163.2657 C.2     1  UNL1        0.0080
      2 C         140.2014  140.2204  162.5129 C.2     1  UNL1        0.0135
      3 C         140.0899  140.5596  161.0560 C.3     1  UNL1        0.1542
      4 C         138.9467  139.8906  161.7600 C.3     1  UNL1        0.0614
      5 C         137.6920  139.5608  161.0071 C.3     1  UNL1        0.0725
      6 N         137.5804  139.8999  159.5502 N.3     1  UNL1       -0.2972
      7 C         138.7236  140.5689  158.8462 C.3     1  UNL1        0.0725
      8 C         139.9783  140.8987  159.5991 C.3     1  UNL1        0.0614
      9 O         141.2331  141.2286  160.3520 O.3     1  UNL1       -0.4785
     10 C         142.4878  141.5584  161.1049 C.ar    1  UNL1        0.1386
     11 C         143.6310  142.2274  160.4009 C.ar    1  UNL1        0.0369
     12 C         144.8857  142.5572  161.1537 C.ar    1  UNL1        0.0031
     13 C         144.9973  142.2180  162.6106 C.ar    1  UNL1        0.0002
     14 C         143.8542  141.5490  163.3146 C.ar    1  UNL1        0.0030
     15 C         142.5994  141.2192  162.5617 C.ar    1  UNL1        0.0343
     16 H         136.7733  140.5159  159.4522 H       1  UNL1        0.1233
     17 C         141.2019  140.1879  167.1219 C.ar    1  UNL1        0.0830
     18 C         142.2771  139.1904  166.8073 C.ar    1  UNL1        0.0115
     19 C         142.5032  139.2047  165.3245 C.ar    1  UNL1        0.0071
     20 C         141.5678  140.2111  164.7226 C.ar    1  UNL1        0.0295
     21 S         140.7635  140.8187  165.8335 S.2     1  UNL1       -0.0824
     22 N         141.3186  141.5482  169.3322 N.am    1  UNL1       -0.2757
     23 C         140.6602  140.4998  168.4854 C.2     1  UNL1        0.2550
     24 O         139.4599  139.7633  169.0020 O.2     1  UNL1       -0.2694
     25 C         139.6557  142.8446  170.8501 C.3     1  UNL1        0.0233
     26 C         140.7769  141.8602  170.6957 C.3     1  UNL1        0.0938
     27 C         142.5189  142.2847  168.8155 C.3     1  UNL1        0.0938
     28 C         143.7786  142.3297  169.6287 C.3     1  UNL1        0.0233
@<TRIPOS>BOND
     1    25    26    1
     2    26    22    1
     3    22    27    1
     4    27    28    1
     5    22    23   am
     6    23    24    2
     7    23    17    1
     8    17    18   ar
     9    18    19   ar
    10    19    20   ar
    11    20     1    1
    12     1     2    2
    13     2     3    1
    14     3     4    1
    15     4     5    1
    16     5     6    1
    17     6     7    1
    18     7     8    1
    19     3     9    1
    20     9    10    1
    21    10    11   ar
    22    11    12   ar
    23    12    13   ar
    24    13    14   ar
    25    14    15   ar
    26    20    21   ar
    27    21    17   ar
    28    15     1    1
    29     8     3    1
    30    15    10   ar
    31     6    16    1
