@<TRIPOS>MOLECULE
*****
 47 52 0 0 0
SMALL
GASTEIGER

@<TRIPOS>ATOM
      1 C         139.1998  138.5715  161.9020 C.3     1  UNL1        0.1747
      2 C         140.4060  139.0509  161.1501 C.2     1  UNL1        0.2425
      3 O         141.6506  139.4338  161.8947 O.2     1  UNL1       -0.2733
      4 N         140.3676  139.1472  159.6538 N.am    1  UNL1       -0.3018
      5 H         139.5508  138.8958  159.1651 H       1  UNL1        0.1495
      6 C         141.5739  139.6265  158.9019 C.3     1  UNL1        0.1035
      7 C         142.9635  139.1057  158.6833 C.3     1  UNL1        0.0933
      8 N         143.2798  140.3043  157.8387 N.3     1  UNL1       -0.2711
      9 C         141.8902  140.8251  158.0574 C.3     1  UNL1        0.0933
     10 C         144.4861  140.7836  157.0869 C.3     1  UNL1        0.0576
     11 C         144.8743  140.1274  155.7951 C.3     1  UNL1        0.0163
     12 C         146.0805  140.6067  155.0433 C.3     1  UNL1        0.0057
     13 C         146.8985  141.7423  155.5832 C.3     1  UNL1        0.0225
     14 C         146.5103  142.3985  156.8750 C.3     1  UNL1        0.0057
     15 C         145.3040  141.9191  157.6268 C.3     1  UNL1        0.0163
     16 C         148.1047  142.2215  154.8313 C.ar    1  UNL1       -0.0193
     17 C         147.9490  143.2162  153.7193 C.ar    1  UNL1       -0.0010
     18 C         149.1551  143.6955  152.9674 C.ar    1  UNL1        0.0399
     19 C         150.5170  143.1801  153.3273 C.ar    1  UNL1        0.1764
     20 C         150.6728  142.1854  154.4392 C.ar    1  UNL1        0.1761
     21 C         149.4666  141.7061  155.1912 C.ar    1  UNL1        0.0359
     22 O         152.1310  141.8582  154.5675 O.3     1  UNL1       -0.4346
     23 C         152.8765  142.6507  153.5349 C.3     1  UNL1        0.4294
     24 O         151.8790  143.4677  152.7684 O.3     1  UNL1       -0.4346
     25 N         138.3128  139.5570  162.6036 N.pl3   1  UNL1       -0.3093
     26 H         137.3625  139.6273  162.3560 H       1  UNL1        0.1487
     27 N         139.8538  140.0662  168.1525 N.am    1  UNL1       -0.2884
     28 C         140.0454  141.2756  167.2860 C.2     1  UNL1        0.3358
     29 O         140.6121  142.5351  167.8711 O.2     1  UNL1       -0.2477
     30 N         139.6701  141.2254  165.8346 N.ar    1  UNL1       -0.1811
     31 N         139.0953  140.0427  165.1129 N.ar    1  UNL1       -0.1466
     32 C         138.8737  140.4355  163.6824 C.ar    1  UNL1        0.1505
     33 C         139.3115  141.8610  163.5199 C.ar    1  UNL1        0.0509
     34 C         139.3256  142.7775  162.3325 C.ar    1  UNL1        0.0082
     35 C         139.8318  144.1822  162.4754 C.ar    1  UNL1        0.0716
     36 C         140.3240  144.6704  163.8056 C.ar    1  UNL1        0.0054
     37 C         140.3099  143.7539  164.9929 C.ar    1  UNL1        0.0193
     38 C         139.8037  142.3492  164.8500 C.ar    1  UNL1        0.0899
     39 H         139.4819  139.2394  167.7686 H       1  UNL1        0.1511
     40 C         141.6374  139.7376  169.2528 C.3     1  UNL1        0.0197
     41 C         140.2291  140.1164  169.6040 C.3     1  UNL1        0.0586
     42 C         138.8208  140.4951  169.9550 C.3     1  UNL1        0.0197
     43 C         140.6044  140.1666  171.0553 C.3     1  UNL1        0.0197
     44 C         139.8459  145.0988  161.2880 C.3     1  UNL1        0.4186
     45 F         139.8599  146.0153  160.1008 F       1  UNL1       -0.1659
     46 F         140.1262  146.2635  162.1906 F       1  UNL1       -0.1659
     47 F         139.5655  143.9340  160.3855 F       1  UNL1       -0.1659
@<TRIPOS>BOND
     1    40    41    1
     2    41    42    1
     3    41    43    1
     4    41    27    1
     5    27    28   am
     6    28    29    2
     7    28    30   am
     8    30    31   ar
     9    31    32   ar
    10    32    25    1
    11    25     1    1
    12     1     2    1
    13     2     3    2
    14     2     4   am
    15     4     6    1
    16     6     7    1
    17     7     8    1
    18    10     8    1
    19    10    11    1
    20    11    12    1
    21    12    13    1
    22    13    16    1
    23    16    17   ar
    24    17    18   ar
    25    18    19   ar
    26    19    20   ar
    27    20    21   ar
    28    20    22    1
    29    22    23    1
    30    23    24    1
    31    13    14    1
    32    14    15    1
    33     8     9    1
    34    32    33   ar
    35    33    34   ar
    36    34    35   ar
    37    35    44    1
    38    44    45    1
    39    44    46    1
    40    44    47    1
    41    35    36   ar
    42    36    37   ar
    43    37    38   ar
    44    38    30   ar
    45     9     6    1
    46    38    33   ar
    47    15    10    1
    48    21    16   ar
    49    24    19    1
    50    27    39    1
    51    25    26    1
    52     4     5    1
@<TRIPOS>MOLECULE
*****
 47 52 0 0 0
SMALL
GASTEIGER

@<TRIPOS>ATOM
      1 C         138.7243  138.0947  153.6340 C.3     1  UNL1        0.1747
      2 C         138.7408  138.1431  155.1331 C.2     1  UNL1        0.2425
      3 O         138.4798  136.8972  155.9266 O.2     1  UNL1       -0.2733
      4 N         139.0184  139.4373  155.8386 N.am    1  UNL1       -0.3018
      5 H         139.1897  140.2550  155.3178 H       1  UNL1        0.1495
      6 C         139.0349  139.4857  157.3378 C.3     1  UNL1        0.1035
      7 C         138.2584  140.2297  158.3836 C.3     1  UNL1        0.0933
      8 N         139.0582  139.5541  159.4579 N.3     1  UNL1       -0.2711
      9 C         139.8345  138.8102  158.4121 C.3     1  UNL1        0.0933
     10 C         139.0747  139.6025  160.9570 C.3     1  UNL1        0.0576
     11 C         139.7427  140.7448  161.6633 C.3     1  UNL1        0.0163
     12 C         139.7593  140.7932  163.1623 C.3     1  UNL1        0.0057
     13 C         139.1078  139.6992  163.9553 C.3     1  UNL1        0.0225
     14 C         138.4397  138.5569  163.2491 C.3     1  UNL1        0.0057
     15 C         138.4232  138.5085  161.7499 C.3     1  UNL1        0.0163
     16 C         139.1243  139.7477  165.4544 C.ar    1  UNL1       -0.0193
     17 C         138.0657  139.0316  166.2397 C.ar    1  UNL1       -0.0010
     18 C         138.0821  139.0800  167.7388 C.ar    1  UNL1        0.0399
     19 C         139.1573  139.8445  168.4526 C.ar    1  UNL1        0.1764
     20 C         140.2160  140.5605  167.6674 C.ar    1  UNL1        0.1761
     21 C         140.1995  140.5121  166.1683 C.ar    1  UNL1        0.0359
     22 O         141.1425  141.2280  168.6399 O.3     1  UNL1       -0.4346
     23 C         140.6565  140.9246  170.0262 C.3     1  UNL1        0.4294
     24 O         139.4296  140.0695  169.9105 O.3     1  UNL1       -0.4346
     25 N         139.9916  137.8245  152.8783 N.pl3   1  UNL1       -0.3093
     26 H         139.9582  137.6352  151.9127 H       1  UNL1        0.1487
     27 N         144.5946  140.9146  154.5181 N.am    1  UNL1       -0.2884
     28 C         144.5760  139.4689  154.9180 C.2     1  UNL1        0.3358
     29 O         145.7162  138.8937  155.7045 O.2     1  UNL1       -0.2477
     30 N         143.4170  138.5987  154.5312 N.ar    1  UNL1       -0.1811
     31 N         142.2119  139.0311  153.7498 N.ar    1  UNL1       -0.1466
     32 C         141.3099  137.8428  153.5937 C.ar    1  UNL1        0.1505
     33 C         141.9575  136.6760  154.2787 C.ar    1  UNL1        0.0509
     34 C         141.5296  135.2486  154.4497 C.ar    1  UNL1        0.0082
     35 C         142.4040  134.2883  155.2001 C.ar    1  UNL1        0.0716
     36 C         143.7063  134.7554  155.7795 C.ar    1  UNL1        0.0054
     37 C         144.1342  136.1829  155.6085 C.ar    1  UNL1        0.0193
     38 C         143.2598  137.1432  154.8581 C.ar    1  UNL1        0.0899
     39 H         143.8461  141.2922  154.0018 H       1  UNL1        0.1511
     40 C         145.1122  142.0476  156.2351 C.3     1  UNL1        0.0197
     41 C         145.7535  141.7849  154.9048 C.3     1  UNL1        0.0586
     42 C         146.3947  141.5221  153.5744 C.3     1  UNL1        0.0197
     43 C         146.9123  142.6551  155.2915 C.3     1  UNL1        0.0197
     44 C         141.9761  132.8608  155.3711 C.3     1  UNL1        0.4186
     45 F         141.5483  131.4333  155.5421 F       1  UNL1       -0.1659
     46 F         142.4363  132.8939  156.7983 F       1  UNL1       -0.1659
     47 F         141.5159  132.8277  153.9438 F       1  UNL1       -0.1659
@<TRIPOS>BOND
     1    40    41    1
     2    41    42    1
     3    41    43    1
     4    41    27    1
     5    27    28   am
     6    28    29    2
     7    28    30   am
     8    30    31   ar
     9    31    32   ar
    10    32    25    1
    11    25     1    1
    12     1     2    1
    13     2     3    2
    14     2     4   am
    15     4     6    1
    16     6     7    1
    17     7     8    1
    18    10     8    1
    19    10    11    1
    20    11    12    1
    21    12    13    1
    22    13    16    1
    23    16    17   ar
    24    17    18   ar
    25    18    19   ar
    26    19    20   ar
    27    20    21   ar
    28    20    22    1
    29    22    23    1
    30    23    24    1
    31    13    14    1
    32    14    15    1
    33     8     9    1
    34    32    33   ar
    35    33    34   ar
    36    34    35   ar
    37    35    44    1
    38    44    45    1
    39    44    46    1
    40    44    47    1
    41    35    36   ar
    42    36    37   ar
    43    37    38   ar
    44    38    30   ar
    45     9     6    1
    46    38    33   ar
    47    15    10    1
    48    21    16   ar
    49    24    19    1
    50    27    39    1
    51    25    26    1
    52     4     5    1
@<TRIPOS>MOLECULE
*****
 47 52 0 0 0
SMALL
GASTEIGER

@<TRIPOS>ATOM
      1 C         138.6794  139.8173  155.3853 C.3     1  UNL1        0.1747
      2 C         138.8214  140.0530  156.8599 C.2     1  UNL1        0.2425
      3 O         138.7803  141.4504  157.4035 O.2     1  UNL1       -0.2733
      4 N         139.0046  138.8912  157.7908 N.am    1  UNL1       -0.3018
      5 H         139.0316  137.9740  157.4340 H       1  UNL1        0.1495
      6 C         139.1466  139.1268  159.2653 C.3     1  UNL1        0.1035
      7 C         140.1666  138.7647  160.3040 C.3     1  UNL1        0.0933
      8 N         139.3476  139.4601  161.3507 N.3     1  UNL1       -0.2711
      9 C         138.3277  139.8222  160.3121 C.3     1  UNL1        0.0933
     10 C         139.4896  139.6957  162.8253 C.3     1  UNL1        0.0576
     11 C         140.2353  140.8977  163.3243 C.3     1  UNL1        0.0163
     12 C         140.3774  141.1334  164.7987 C.3     1  UNL1        0.0057
     13 C         139.7736  140.1670  165.7744 C.3     1  UNL1        0.0225
     14 C         139.0279  138.9650  165.2753 C.3     1  UNL1        0.0057
     15 C         138.8858  138.7294  163.8008 C.3     1  UNL1        0.0163
     16 C         139.9157  140.4028  167.2488 C.ar    1  UNL1       -0.0193
     17 C         138.8894  139.8582  168.1977 C.ar    1  UNL1       -0.0010
     18 C         139.0314  140.0939  169.6723 C.ar    1  UNL1        0.0399
     19 C         140.1996  140.8742  170.1979 C.ar    1  UNL1        0.1764
     20 C         141.2259  141.4188  169.2491 C.ar    1  UNL1        0.1761
     21 C         141.0839  141.1831  167.7746 C.ar    1  UNL1        0.0359
     22 O         142.2624  142.1449  170.0542 O.3     1  UNL1       -0.4346
     23 C         141.8768  142.0491  171.5007 C.3     1  UNL1        0.4294
     24 O         140.6019  141.2638  171.5895 O.3     1  UNL1       -0.4346
     25 N         139.4253  138.6927  154.7303 N.pl3   1  UNL1       -0.3093
     26 H         138.9510  138.0681  154.1352 H       1  UNL1        0.1487
     27 N         144.5675  141.2313  155.4640 N.am    1  UNL1       -0.2884
     28 C         144.5400  139.7329  155.5296 C.2     1  UNL1        0.3358
     29 O         145.8075  138.9697  155.7756 O.2     1  UNL1       -0.2477
     30 N         143.2448  138.9980  155.3493 N.ar    1  UNL1       -0.1811
     31 N         141.9044  139.6224  155.0978 N.ar    1  UNL1       -0.1466
     32 C         140.8940  138.5199  154.9819 C.ar    1  UNL1        0.1505
     33 C         141.6099  137.2141  155.1617 C.ar    1  UNL1        0.0509
     34 C         141.1266  135.7942  155.1480 C.ar    1  UNL1        0.0082
     35 C         142.0962  134.6698  155.3615 C.ar    1  UNL1        0.0716
     36 C         143.5491  134.9653  155.5885 C.ar    1  UNL1        0.0054
     37 C         144.0325  136.3852  155.6022 C.ar    1  UNL1        0.0193
     38 C         143.0629  137.5096  155.3888 C.ar    1  UNL1        0.0899
     39 H         143.7355  141.7324  155.3026 H       1  UNL1        0.1511
     40 C         146.1235  141.8679  154.1705 C.3     1  UNL1        0.0197
     41 C         145.8626  141.9663  155.6444 C.3     1  UNL1        0.0586
     42 C         145.6015  142.0647  157.1182 C.3     1  UNL1        0.0197
     43 C         147.1576  142.7012  155.8247 C.3     1  UNL1        0.0197
     44 C         141.6128  133.2498  155.3478 C.3     1  UNL1        0.4186
     45 F         141.1295  131.8299  155.3342 F       1  UNL1       -0.1659
     46 F         142.2566  133.0179  156.6826 F       1  UNL1       -0.1659
     47 F         140.9690  133.4818  154.0130 F       1  UNL1       -0.1659
@<TRIPOS>BOND
     1    40    41    1
     2    41    42    1
     3    41    43    1
     4    41    27    1
     5    27    28   am
     6    28    29    2
     7    28    30   am
     8    30    31   ar
     9    31    32   ar
    10    32    25    1
    11    25     1    1
    12     1     2    1
    13     2     3    2
    14     2     4   am
    15     4     6    1
    16     6     7    1
    17     7     8    1
    18    10     8    1
    19    10    11    1
    20    11    12    1
    21    12    13    1
    22    13    16    1
    23    16    17   ar
    24    17    18   ar
    25    18    19   ar
    26    19    20   ar
    27    20    21   ar
    28    20    22    1
    29    22    23    1
    30    23    24    1
    31    13    14    1
    32    14    15    1
    33     8     9    1
    34    32    33   ar
    35    33    34   ar
    36    34    35   ar
    37    35    44    1
    38    44    45    1
    39    44    46    1
    40    44    47    1
    41    35    36   ar
    42    36    37   ar
    43    37    38   ar
    44    38    30   ar
    45     9     6    1
    46    38    33   ar
    47    15    10    1
    48    21    16   ar
    49    24    19    1
    50    27    39    1
    51    25    26    1
    52     4     5    1
@<TRIPOS>MOLECULE
*****
 47 52 0 0 0
SMALL
GASTEIGER

@<TRIPOS>ATOM
      1 C         143.7164  138.1754  161.7499 C.3     1  UNL1        0.1747
      2 C         143.3940  139.4175  160.9732 C.2     1  UNL1        0.2425
      3 O         144.0916  140.7057  161.2953 O.2     1  UNL1       -0.2733
      4 N         142.3740  139.3712  159.8744 N.am    1  UNL1       -0.3018
      5 H         141.9161  138.5257  159.6630 H       1  UNL1        0.1495
      6 C         142.0515  140.6133  159.0977 C.3     1  UNL1        0.1035
      7 C         142.3360  141.0985  157.7071 C.3     1  UNL1        0.0933
      8 N         141.5956  142.3698  157.9992 N.3     1  UNL1       -0.2711
      9 C         141.3111  141.8846  159.3897 C.3     1  UNL1        0.0933
     10 C         141.2731  143.6119  157.2225 C.3     1  UNL1        0.0576
     11 C         140.3212  143.5468  156.0651 C.3     1  UNL1        0.0163
     12 C         139.9988  144.7888  155.2884 C.3     1  UNL1        0.0057
     13 C         140.6283  146.0961  155.6691 C.3     1  UNL1        0.0225
     14 C         141.5802  146.1612  156.8265 C.3     1  UNL1        0.0057
     15 C         141.9026  144.9191  157.6032 C.3     1  UNL1        0.0163
     16 C         140.3058  147.3380  154.8923 C.ar    1  UNL1       -0.0193
     17 C         140.7104  147.4482  153.4521 C.ar    1  UNL1       -0.0010
     18 C         140.3880  148.6901  152.6752 C.ar    1  UNL1        0.0399
     19 C         139.6608  149.8220  153.3385 C.ar    1  UNL1        0.1764
     20 C         139.2561  149.7119  154.7787 C.ar    1  UNL1        0.1761
     21 C         139.5786  148.4700  155.5556 C.ar    1  UNL1        0.0359
     22 O         138.5547  150.9814  155.1614 O.3     1  UNL1       -0.4346
     23 C         138.5259  151.8760  153.9577 C.3     1  UNL1        0.4294
     24 O         139.2095  151.1595  152.8311 O.3     1  UNL1       -0.4346
     25 N         142.6793  137.5569  162.6399 N.pl3   1  UNL1       -0.3093
     26 H         142.4914  136.5924  162.5803 H       1  UNL1        0.1487
     27 N         142.5861  140.0254  167.8670 N.am    1  UNL1       -0.2884
     28 C         141.3892  140.2540  166.9922 C.2     1  UNL1        0.3358
     29 O         140.2460  141.0886  167.4884 O.2     1  UNL1       -0.2477
     30 N         141.3355  139.6478  165.6211 N.ar    1  UNL1       -0.1811
     31 N         142.3971  138.7949  164.9921 N.ar    1  UNL1       -0.1466
     32 C         141.9285  138.4081  163.6207 C.ar    1  UNL1        0.1505
     33 C         140.5775  139.0220  163.4021 C.ar    1  UNL1        0.0509
     34 C         139.6336  138.9823  162.2370 C.ar    1  UNL1        0.0082
     35 C         138.3232  139.7087  162.3083 C.ar    1  UNL1        0.0716
     36 C         137.9567  140.4749  163.5447 C.ar    1  UNL1        0.0054
     37 C         138.9006  140.5146  164.7098 C.ar    1  UNL1        0.0193
     38 C         140.2110  139.7882  164.6385 C.ar    1  UNL1        0.0899
     39 H         143.3365  139.4776  167.5413 H       1  UNL1        0.1511
     40 C         142.1748  139.3340  169.8298 C.3     1  UNL1        0.0197
     41 C         142.6397  140.6316  169.2380 C.3     1  UNL1        0.0586
     42 C         143.1046  141.9291  168.6462 C.3     1  UNL1        0.0197
     43 C         142.6933  141.2377  170.6090 C.3     1  UNL1        0.0197
     44 C         137.3793  139.6690  161.1432 C.3     1  UNL1        0.4186
     45 F         136.4354  139.6294  159.9781 F       1  UNL1       -0.1659
     46 F         137.6958  141.1031  160.8380 F       1  UNL1       -0.1659
     47 F         137.0627  138.2350  161.4484 F       1  UNL1       -0.1659
@<TRIPOS>BOND
     1    40    41    1
     2    41    42    1
     3    41    43    1
     4    41    27    1
     5    27    28   am
     6    28    29    2
     7    28    30   am
     8    30    31   ar
     9    31    32   ar
    10    32    25    1
    11    25     1    1
    12     1     2    1
    13     2     3    2
    14     2     4   am
    15     4     6    1
    16     6     7    1
    17     7     8    1
    18    10     8    1
    19    10    11    1
    20    11    12    1
    21    12    13    1
    22    13    16    1
    23    16    17   ar
    24    17    18   ar
    25    18    19   ar
    26    19    20   ar
    27    20    21   ar
    28    20    22    1
    29    22    23    1
    30    23    24    1
    31    13    14    1
    32    14    15    1
    33     8     9    1
    34    32    33   ar
    35    33    34   ar
    36    34    35   ar
    37    35    44    1
    38    44    45    1
    39    44    46    1
    40    44    47    1
    41    35    36   ar
    42    36    37   ar
    43    37    38   ar
    44    38    30   ar
    45     9     6    1
    46    38    33   ar
    47    15    10    1
    48    21    16   ar
    49    24    19    1
    50    27    39    1
    51    25    26    1
    52     4     5    1
@<TRIPOS>MOLECULE
*****
 47 52 0 0 0
SMALL
GASTEIGER

@<TRIPOS>ATOM
      1 C         145.0625  140.0033  155.7256 C.3     1  UNL1        0.1747
      2 C         144.5783  140.2719  157.1196 C.2     1  UNL1        0.2425
      3 O         144.9716  141.5392  157.8191 O.2     1  UNL1       -0.2733
      4 N         143.7009  139.2731  157.8142 N.am    1  UNL1       -0.3018
      5 H         143.4428  138.4413  157.3551 H       1  UNL1        0.1495
      6 C         143.2167  139.5417  159.2083 C.3     1  UNL1        0.1035
      7 C         143.7952  139.3761  160.5824 C.3     1  UNL1        0.0933
      8 N         142.5321  139.9214  161.1799 N.3     1  UNL1       -0.2711
      9 C         141.9536  140.0870  159.8058 C.3     1  UNL1        0.0933
     10 C         142.0479  140.1900  162.5740 C.3     1  UNL1        0.0576
     11 C         142.2970  141.5253  163.2102 C.3     1  UNL1        0.0163
     12 C         141.8129  141.7939  164.6042 C.3     1  UNL1        0.0057
     13 C         141.0796  140.7272  165.3621 C.3     1  UNL1        0.0225
     14 C         140.8305  139.3918  164.7259 C.3     1  UNL1        0.0057
     15 C         141.3147  139.1232  163.3318 C.3     1  UNL1        0.0163
     16 C         140.5955  140.9958  166.7561 C.ar    1  UNL1       -0.0193
     17 C         139.9712  139.8931  167.5589 C.ar    1  UNL1       -0.0010
     18 C         139.4871  140.1616  168.9530 C.ar    1  UNL1        0.0399
     19 C         139.6272  141.5330  169.5443 C.ar    1  UNL1        0.1764
     20 C         140.2514  142.6357  168.7417 C.ar    1  UNL1        0.1761
     21 C         140.7355  142.3672  167.3476 C.ar    1  UNL1        0.0359
     22 O         140.2553  143.8770  169.5838 O.3     1  UNL1       -0.4346
     23 C         139.6335  143.5413  170.9070 C.3     1  UNL1        0.4294
     24 O         139.2453  142.0927  170.8826 O.3     1  UNL1       -0.4346
     25 N         144.8777  138.6451  155.1160 N.pl3   1  UNL1       -0.3093
     26 H         145.6558  138.1505  154.7708 H       1  UNL1        0.1487
     27 N         139.2366  139.4905  154.1742 N.am    1  UNL1       -0.2884
     28 C         139.6650  138.0871  154.4860 C.2     1  UNL1        0.3358
     29 O         138.6471  136.9869  154.5408 O.2     1  UNL1       -0.2477
     30 N         141.1115  137.7842  154.7429 N.ar    1  UNL1       -0.1811
     31 N         142.2370  138.7755  154.7227 N.ar    1  UNL1       -0.1466
     32 C         143.5075  138.0407  155.0325 C.ar    1  UNL1        0.1505
     33 C         143.1671  136.5952  155.2442 C.ar    1  UNL1        0.0509
     34 C         144.0143  135.4029  155.5767 C.ar    1  UNL1        0.0082
     35 C         143.3806  134.0520  155.7303 C.ar    1  UNL1        0.0716
     36 C         141.8998  133.8935  155.5513 C.ar    1  UNL1        0.0054
     37 C         141.0526  135.0858  155.2188 C.ar    1  UNL1        0.0193
     38 C         141.6863  136.4367  155.0652 C.ar    1  UNL1        0.0899
     39 H         139.9047  140.2127  154.1382 H       1  UNL1        0.1511
     40 C         137.6151  140.1780  155.3565 C.3     1  UNL1        0.0197
     41 C         137.7901  139.7935  153.9172 C.3     1  UNL1        0.0586
     42 C         137.9652  139.4089  152.4780 C.3     1  UNL1        0.0197
     43 C         136.3437  140.0964  153.6603 C.3     1  UNL1        0.0197
     44 C         144.2277  132.8596  156.0629 C.3     1  UNL1        0.4186
     45 F         145.0749  131.6673  156.3955 F       1  UNL1       -0.1659
     46 F         144.6109  133.4954  157.3663 F       1  UNL1       -0.1659
     47 F         143.8446  132.2238  154.7595 F       1  UNL1       -0.1659
@<TRIPOS>BOND
     1    40    41    1
     2    41    42    1
     3    41    43    1
     4    41    27    1
     5    27    28   am
     6    28    29    2
     7    28    30   am
     8    30    31   ar
     9    31    32   ar
    10    32    25    1
    11    25     1    1
    12     1     2    1
    13     2     3    2
    14     2     4   am
    15     4     6    1
    16     6     7    1
    17     7     8    1
    18    10     8    1
    19    10    11    1
    20    11    12    1
    21    12    13    1
    22    13    16    1
    23    16    17   ar
    24    17    18   ar
    25    18    19   ar
    26    19    20   ar
    27    20    21   ar
    28    20    22    1
    29    22    23    1
    30    23    24    1
    31    13    14    1
    32    14    15    1
    33     8     9    1
    34    32    33   ar
    35    33    34   ar
    36    34    35   ar
    37    35    44    1
    38    44    45    1
    39    44    46    1
    40    44    47    1
    41    35    36   ar
    42    36    37   ar
    43    37    38   ar
    44    38    30   ar
    45     9     6    1
    46    38    33   ar
    47    15    10    1
    48    21    16   ar
    49    24    19    1
    50    27    39    1
    51    25    26    1
    52     4     5    1
@<TRIPOS>MOLECULE
*****
 47 52 0 0 0
SMALL
GASTEIGER

@<TRIPOS>ATOM
      1 C         144.8523  142.2022  157.6792 C.3     1  UNL1        0.1747
      2 C         144.4898  140.7509  157.5678 C.2     1  UNL1        0.2425
      3 O         144.3711  139.9104  158.8045 O.2     1  UNL1       -0.2733
      4 N         144.2461  140.1402  156.2196 N.am    1  UNL1       -0.3018
      5 H         144.3240  140.6919  155.4080 H       1  UNL1        0.1495
      6 C         143.8836  138.6889  156.1082 C.3     1  UNL1        0.1035
      7 C         142.7931  137.8223  156.6649 C.3     1  UNL1        0.0933
      8 N         143.3709  136.6365  155.9507 N.3     1  UNL1       -0.2711
      9 C         144.4614  137.5032  155.3941 C.3     1  UNL1        0.0933
     10 C         143.0084  135.1852  155.8392 C.3     1  UNL1        0.0576
     11 C         142.1461  134.7124  154.7067 C.3     1  UNL1        0.0163
     12 C         141.7836  133.2612  154.5952 C.3     1  UNL1        0.0057
     13 C         142.2835  132.2827  155.6164 C.3     1  UNL1        0.0225
     14 C         143.1458  132.7555  156.7490 C.3     1  UNL1        0.0057
     15 C         143.5083  134.2068  156.8604 C.3     1  UNL1        0.0163
     16 C         141.9210  130.8315  155.5048 C.ar    1  UNL1       -0.0193
     17 C         142.6678  129.8080  156.3079 C.ar    1  UNL1       -0.0010
     18 C         142.3054  128.3567  156.1965 C.ar    1  UNL1        0.0399
     19 C         141.1961  127.9289  155.2819 C.ar    1  UNL1        0.1764
     20 C         140.4493  128.9523  154.4789 C.ar    1  UNL1        0.1761
     21 C         140.8117  130.4036  154.5903 C.ar    1  UNL1        0.0359
     22 O         139.4104  128.2367  153.6673 O.3     1  UNL1       -0.4346
     23 C         139.5151  126.7710  153.9689 C.3     1  UNL1        0.4294
     24 O         140.6187  126.5808  154.9667 O.3     1  UNL1       -0.4346
     25 N         144.0580  143.2331  156.9332 N.pl3   1  UNL1       -0.3093
     26 H         144.2679  143.4298  155.9917 H       1  UNL1        0.1487
     27 N         141.2079  144.2276  161.8640 N.am    1  UNL1       -0.2884
     28 C         140.7267  144.9616  160.6474 C.2     1  UNL1        0.3358
     29 O         139.5598  145.8983  160.7495 O.2     1  UNL1       -0.2477
     30 N         141.4126  144.7587  159.3289 N.ar    1  UNL1       -0.1811
     31 N         142.5856  143.8590  159.0745 N.ar    1  UNL1       -0.1466
     32 C         142.9438  143.9642  157.6217 C.ar    1  UNL1        0.1505
     33 C         141.9922  144.9288  156.9783 C.ar    1  UNL1        0.0509
     34 C         141.8651  145.4234  155.5679 C.ar    1  UNL1        0.0082
     35 C         140.7918  146.4091  155.2127 C.ar    1  UNL1        0.0716
     36 C         139.8454  146.9002  156.2678 C.ar    1  UNL1        0.0054
     37 C         139.9725  146.4055  157.6782 C.ar    1  UNL1        0.0193
     38 C         141.0458  145.4198  158.0334 C.ar    1  UNL1        0.0899
     39 H         141.9739  143.6128  161.7970 H       1  UNL1        0.1511
     40 C         139.5298  143.3620  162.8307 C.3     1  UNL1        0.0197
     41 C         140.5221  144.4305  163.1825 C.3     1  UNL1        0.0586
     42 C         141.5143  145.4990  163.5342 C.3     1  UNL1        0.0197
     43 C         139.8362  144.6334  164.5009 C.3     1  UNL1        0.0197
     44 C         140.6647  146.9038  153.8023 C.3     1  UNL1        0.4186
     45 F         140.5376  147.3985  152.3919 F       1  UNL1       -0.1659
     46 F         141.8683  146.0986  153.4115 F       1  UNL1       -0.1659
     47 F         139.4610  147.7091  154.1931 F       1  UNL1       -0.1659
@<TRIPOS>BOND
     1    40    41    1
     2    41    42    1
     3    41    43    1
     4    41    27    1
     5    27    28   am
     6    28    29    2
     7    28    30   am
     8    30    31   ar
     9    31    32   ar
    10    32    25    1
    11    25     1    1
    12     1     2    1
    13     2     3    2
    14     2     4   am
    15     4     6    1
    16     6     7    1
    17     7     8    1
    18    10     8    1
    19    10    11    1
    20    11    12    1
    21    12    13    1
    22    13    16    1
    23    16    17   ar
    24    17    18   ar
    25    18    19   ar
    26    19    20   ar
    27    20    21   ar
    28    20    22    1
    29    22    23    1
    30    23    24    1
    31    13    14    1
    32    14    15    1
    33     8     9    1
    34    32    33   ar
    35    33    34   ar
    36    34    35   ar
    37    35    44    1
    38    44    45    1
    39    44    46    1
    40    44    47    1
    41    35    36   ar
    42    36    37   ar
    43    37    38   ar
    44    38    30   ar
    45     9     6    1
    46    38    33   ar
    47    15    10    1
    48    21    16   ar
    49    24    19    1
    50    27    39    1
    51    25    26    1
    52     4     5    1
@<TRIPOS>MOLECULE
*****
 47 52 0 0 0
SMALL
GASTEIGER

@<TRIPOS>ATOM
      1 C         140.8776  146.3885  155.8031 C.3     1  UNL1        0.1747
      2 C         141.0606  145.9510  157.2261 C.2     1  UNL1        0.2425
      3 O         142.3522  146.2294  157.9362 O.2     1  UNL1       -0.2733
      4 N         139.9520  145.2351  157.9391 N.am    1  UNL1       -0.3018
      5 H         139.1042  145.0524  157.4730 H       1  UNL1        0.1495
      6 C         140.1350  144.7975  159.3621 C.3     1  UNL1        0.1035
      7 C         140.7191  145.4190  160.5961 C.3     1  UNL1        0.0933
      8 N         140.3939  144.1788  161.3746 N.3     1  UNL1       -0.2711
      9 C         139.8098  143.5574  160.1407 C.3     1  UNL1        0.0933
     10 C         140.5770  143.7412  162.7977 C.3     1  UNL1        0.0576
     11 C         139.6232  144.2116  163.8556 C.3     1  UNL1        0.0163
     12 C         139.8062  143.7741  165.2785 C.3     1  UNL1        0.0057
     13 C         140.9430  142.8661  165.6438 C.3     1  UNL1        0.0225
     14 C         141.8968  142.3957  164.5859 C.3     1  UNL1        0.0057
     15 C         141.7137  142.8333  163.1629 C.3     1  UNL1        0.0163
     16 C         141.1260  142.4286  167.0668 C.ar    1  UNL1       -0.0193
     17 C         140.3215  143.0706  168.1581 C.ar    1  UNL1       -0.0010
     18 C         140.5044  142.6332  169.5812 C.ar    1  UNL1        0.0399
     19 C         141.4917  141.5538  169.9130 C.ar    1  UNL1        0.1764
     20 C         142.2961  140.9118  168.8218 C.ar    1  UNL1        0.1761
     21 C         142.1132  141.3492  167.3987 C.ar    1  UNL1        0.0359
     22 O         143.1872  139.8806  169.4482 O.3     1  UNL1       -0.4346
     23 C         142.9335  139.8852  170.9266 C.3     1  UNL1        0.4294
     24 O         141.8856  140.9193  171.2139 O.3     1  UNL1       -0.4346
     25 N         141.0596  145.4037  154.6863 N.pl3   1  UNL1       -0.3093
     26 H         140.6689  145.5856  153.8011 H       1  UNL1        0.1487
     27 N         146.2484  142.9298  155.3033 N.am    1  UNL1       -0.2884
     28 C         145.0553  142.0249  155.3922 C.2     1  UNL1        0.3358
     29 O         145.2442  140.5561  155.6304 O.2     1  UNL1       -0.2477
     30 N         143.6734  142.5889  155.2427 N.ar    1  UNL1       -0.1811
     31 N         143.3302  144.0291  155.0020 N.ar    1  UNL1       -0.1466
     32 C         141.8368  144.1419  154.9182 C.ar    1  UNL1        0.1505
     33 C         141.2570  142.7715  155.1071 C.ar    1  UNL1        0.0509
     34 C         139.8422  142.2735  155.1224 C.ar    1  UNL1        0.0082
     35 C         139.5625  140.8158  155.3382 C.ar    1  UNL1        0.0716
     36 C         140.6976  139.8559  155.5387 C.ar    1  UNL1        0.0054
     37 C         142.1124  140.3538  155.5234 C.ar    1  UNL1        0.0193
     38 C         142.3921  141.8116  155.3076 C.ar    1  UNL1        0.0899
     39 H         146.1244  143.8939  155.1469 H       1  UNL1        0.1511
     40 C         147.6668  142.0663  153.9835 C.3     1  UNL1        0.0197
     41 C         147.6302  142.3659  155.4528 C.3     1  UNL1        0.0586
     42 C         147.5936  142.6655  156.9221 C.3     1  UNL1        0.0197
     43 C         149.0120  141.8019  155.6023 C.3     1  UNL1        0.0197
     44 C         138.1476  140.3178  155.3534 C.3     1  UNL1        0.4186
     45 F         136.7328  139.8198  155.3688 F       1  UNL1       -0.1659
     46 F         138.4087  139.6160  156.6531 F       1  UNL1       -0.1659
     47 F         137.8865  141.0196  154.0538 F       1  UNL1       -0.1659
@<TRIPOS>BOND
     1    40    41    1
     2    41    42    1
     3    41    43    1
     4    41    27    1
     5    27    28   am
     6    28    29    2
     7    28    30   am
     8    30    31   ar
     9    31    32   ar
    10    32    25    1
    11    25     1    1
    12     1     2    1
    13     2     3    2
    14     2     4   am
    15     4     6    1
    16     6     7    1
    17     7     8    1
    18    10     8    1
    19    10    11    1
    20    11    12    1
    21    12    13    1
    22    13    16    1
    23    16    17   ar
    24    17    18   ar
    25    18    19   ar
    26    19    20   ar
    27    20    21   ar
    28    20    22    1
    29    22    23    1
    30    23    24    1
    31    13    14    1
    32    14    15    1
    33     8     9    1
    34    32    33   ar
    35    33    34   ar
    36    34    35   ar
    37    35    44    1
    38    44    45    1
    39    44    46    1
    40    44    47    1
    41    35    36   ar
    42    36    37   ar
    43    37    38   ar
    44    38    30   ar
    45     9     6    1
    46    38    33   ar
    47    15    10    1
    48    21    16   ar
    49    24    19    1
    50    27    39    1
    51    25    26    1
    52     4     5    1
@<TRIPOS>MOLECULE
*****
 47 52 0 0 0
SMALL
GASTEIGER

@<TRIPOS>ATOM
      1 C         145.2562  139.1581  164.7470 C.3     1  UNL1        0.1747
      2 C         144.8504  140.0879  163.6421 C.2     1  UNL1        0.2425
      3 O         144.8403  141.5697  163.8745 O.2     1  UNL1       -0.2733
      4 N         144.4547  139.5357  162.3048 N.am    1  UNL1       -0.3018
      5 H         144.4613  138.5631  162.1522 H       1  UNL1        0.1495
      6 C         144.0489  140.4655  161.1998 C.3     1  UNL1        0.1035
      7 C         142.9491  140.4845  160.1798 C.3     1  UNL1        0.0933
      8 N         143.4749  141.7803  159.6372 N.3     1  UNL1       -0.2711
      9 C         144.5746  141.7612  160.6571 C.3     1  UNL1        0.0933
     10 C         143.0691  142.7101  158.5322 C.3     1  UNL1        0.0576
     11 C         142.2449  143.9252  158.8392 C.3     1  UNL1        0.0163
     12 C         141.8391  144.8549  157.7344 C.3     1  UNL1        0.0057
     13 C         142.2575  144.5696  156.3224 C.3     1  UNL1        0.0225
     14 C         143.0817  143.3545  156.0154 C.3     1  UNL1        0.0057
     15 C         143.4875  142.4248  157.1203 C.3     1  UNL1        0.0163
     16 C         141.8517  145.4994  155.2176 C.ar    1  UNL1       -0.0193
     17 C         142.3809  145.2909  153.8295 C.ar    1  UNL1       -0.0010
     18 C         141.9751  146.2207  152.7246 C.ar    1  UNL1        0.0399
     19 C         141.0401  147.3589  153.0077 C.ar    1  UNL1        0.1764
     20 C         140.5109  147.5674  154.3956 C.ar    1  UNL1        0.1761
     21 C         140.9167  146.6377  155.5006 C.ar    1  UNL1        0.0359
     22 O         139.6112  148.7674  154.3733 O.3     1  UNL1       -0.4346
     23 C         139.5843  149.3005  152.9715 C.3     1  UNL1        0.4294
     24 O         140.4674  148.4301  152.1275 O.3     1  UNL1       -0.4346
     25 N         144.2087  138.4867  165.5850 N.pl3   1  UNL1       -0.3093
     26 H         144.4556  137.7387  166.1756 H       1  UNL1        0.1487
     27 N         139.5090  139.3528  162.3312 N.am    1  UNL1       -0.2884
     28 C         139.3995  139.7137  163.7831 C.2     1  UNL1        0.3358
     29 O         138.1150  140.2691  164.3230 O.2     1  UNL1       -0.2477
     30 N         140.5745  139.5191  164.6950 N.ar    1  UNL1       -0.1811
     31 N         141.9162  138.9767  164.3006 N.ar    1  UNL1       -0.1466
     32 C         142.7850  138.9551  165.5232 C.ar    1  UNL1        0.1505
     33 C         141.9802  139.4842  166.6732 C.ar    1  UNL1        0.0509
     34 C         142.3149  139.6936  168.1203 C.ar    1  UNL1        0.0082
     35 C         141.2834  140.2515  169.0555 C.ar    1  UNL1        0.0716
     36 C         139.9172  140.6001  168.5436 C.ar    1  UNL1        0.0054
     37 C         139.5825  140.3907  167.0965 C.ar    1  UNL1        0.0193
     38 C         140.6140  139.8327  166.1613 C.ar    1  UNL1        0.0899
     39 H         140.3520  138.9883  161.9768 H       1  UNL1        0.1511
     40 C         137.8549  138.1629  161.7413 C.3     1  UNL1        0.0197
     41 C         138.3339  139.5474  161.4194 C.3     1  UNL1        0.0586
     42 C         138.8130  140.9320  161.0975 C.3     1  UNL1        0.0197
     43 C         137.1590  139.7420  160.5076 C.3     1  UNL1        0.0197
     44 C         141.6180  140.4609  170.5026 C.3     1  UNL1        0.4186
     45 F         141.9526  140.6703  171.9497 F       1  UNL1       -0.1659
     46 F         140.3144  139.8313  170.8951 F       1  UNL1       -0.1659
     47 F         142.9217  141.0905  170.1101 F       1  UNL1       -0.1659
@<TRIPOS>BOND
     1    40    41    1
     2    41    42    1
     3    41    43    1
     4    41    27    1
     5    27    28   am
     6    28    29    2
     7    28    30   am
     8    30    31   ar
     9    31    32   ar
    10    32    25    1
    11    25     1    1
    12     1     2    1
    13     2     3    2
    14     2     4   am
    15     4     6    1
    16     6     7    1
    17     7     8    1
    18    10     8    1
    19    10    11    1
    20    11    12    1
    21    12    13    1
    22    13    16    1
    23    16    17   ar
    24    17    18   ar
    25    18    19   ar
    26    19    20   ar
    27    20    21   ar
    28    20    22    1
    29    22    23    1
    30    23    24    1
    31    13    14    1
    32    14    15    1
    33     8     9    1
    34    32    33   ar
    35    33    34   ar
    36    34    35   ar
    37    35    44    1
    38    44    45    1
    39    44    46    1
    40    44    47    1
    41    35    36   ar
    42    36    37   ar
    43    37    38   ar
    44    38    30   ar
    45     9     6    1
    46    38    33   ar
    47    15    10    1
    48    21    16   ar
    49    24    19    1
    50    27    39    1
    51    25    26    1
    52     4     5    1
@<TRIPOS>MOLECULE
*****
 47 52 0 0 0
SMALL
GASTEIGER

@<TRIPOS>ATOM
      1 C         143.9921  140.5210  155.5144 C.3     1  UNL1        0.1747
      2 C         143.6095  140.6163  156.9617 C.2     1  UNL1        0.2425
      3 O         142.3503  141.3278  157.3593 O.2     1  UNL1       -0.2733
      4 N         144.4862  140.0002  158.0113 N.am    1  UNL1       -0.3018
      5 H         145.3127  139.5332  157.7503 H       1  UNL1        0.1495
      6 C         144.1037  140.0955  159.4585 C.3     1  UNL1        0.1035
      7 C         143.6230  139.1233  160.4949 C.3     1  UNL1        0.0933
      8 N         143.5626  140.2303  161.5053 N.3     1  UNL1       -0.2711
      9 C         144.0432  141.2024  160.4690 C.3     1  UNL1        0.0933
     10 C         143.1800  140.3256  162.9526 C.3     1  UNL1        0.0576
     11 C         142.1596  141.3326  163.3938 C.3     1  UNL1        0.0163
     12 C         141.7770  141.4280  164.8410 C.3     1  UNL1        0.0057
     13 C         142.4149  140.5164  165.8471 C.3     1  UNL1        0.0225
     14 C         143.4353  139.5094  165.4058 C.3     1  UNL1        0.0057
     15 C         143.8179  139.4140  163.9586 C.3     1  UNL1        0.0163
     16 C         142.0323  140.6118  167.2942 C.ar    1  UNL1       -0.0193
     17 C         142.4387  139.5298  168.2504 C.ar    1  UNL1       -0.0010
     18 C         142.0561  139.6251  169.6977 C.ar    1  UNL1        0.0399
     19 C         141.2671  140.8025  170.1888 C.ar    1  UNL1        0.1764
     20 C         140.8606  141.8845  169.2327 C.ar    1  UNL1        0.1761
     21 C         141.2432  141.7891  167.7854 C.ar    1  UNL1        0.0359
     22 O         140.0917  142.9176  170.0016 O.3     1  UNL1       -0.4346
     23 C         140.0229  142.4742  171.4329 C.3     1  UNL1        0.4294
     24 O         140.7493  141.1669  171.5486 O.3     1  UNL1       -0.4346
     25 N         144.4300  139.2065  154.9394 N.pl3   1  UNL1       -0.3093
     26 H         145.2314  139.1611  154.3693 H       1  UNL1        0.1487
     27 N         144.5537  133.6003  156.3466 N.am    1  UNL1       -0.2884
     28 C         143.1998  134.2188  156.1601 C.2     1  UNL1        0.3358
     29 O         141.9644  133.3874  156.3396 O.2     1  UNL1       -0.2477
     30 N         143.0816  135.6687  155.7942 N.ar    1  UNL1       -0.1811
     31 N         144.2215  136.6204  155.5824 N.ar    1  UNL1       -0.1466
     32 C         143.6470  137.9613  155.2331 C.ar    1  UNL1        0.1505
     33 C         142.1521  137.8383  155.2291 C.ar    1  UNL1        0.0509
     34 C         141.0639  138.8335  154.9544 C.ar    1  UNL1        0.0082
     35 C         139.6263  138.4118  155.0266 C.ar    1  UNL1        0.0716
     36 C         139.2768  136.9949  155.3733 C.ar    1  UNL1        0.0054
     37 C         140.3649  135.9997  155.6480 C.ar    1  UNL1        0.0193
     38 C         141.8026  136.4214  155.5758 C.ar    1  UNL1        0.0899
     39 H         145.3646  134.1460  156.2288 H       1  UNL1        0.1511
     40 C         144.2502  131.7660  155.3252 C.3     1  UNL1        0.0197
     41 C         144.6719  132.1505  156.7125 C.3     1  UNL1        0.0586
     42 C         145.0935  132.5350  158.0997 C.3     1  UNL1        0.0197
     43 C         144.7901  130.7007  157.0784 C.3     1  UNL1        0.0197
     44 C         138.5380  139.4070  154.7519 C.3     1  UNL1        0.4186
     45 F         137.4498  140.4021  154.4773 F       1  UNL1       -0.1659
     46 F         137.6142  138.2901  154.3657 F       1  UNL1       -0.1659
     47 F         139.4618  140.5238  155.1381 F       1  UNL1       -0.1659
@<TRIPOS>BOND
     1    40    41    1
     2    41    42    1
     3    41    43    1
     4    41    27    1
     5    27    28   am
     6    28    29    2
     7    28    30   am
     8    30    31   ar
     9    31    32   ar
    10    32    25    1
    11    25     1    1
    12     1     2    1
    13     2     3    2
    14     2     4   am
    15     4     6    1
    16     6     7    1
    17     7     8    1
    18    10     8    1
    19    10    11    1
    20    11    12    1
    21    12    13    1
    22    13    16    1
    23    16    17   ar
    24    17    18   ar
    25    18    19   ar
    26    19    20   ar
    27    20    21   ar
    28    20    22    1
    29    22    23    1
    30    23    24    1
    31    13    14    1
    32    14    15    1
    33     8     9    1
    34    32    33   ar
    35    33    34   ar
    36    34    35   ar
    37    35    44    1
    38    44    45    1
    39    44    46    1
    40    44    47    1
    41    35    36   ar
    42    36    37   ar
    43    37    38   ar
    44    38    30   ar
    45     9     6    1
    46    38    33   ar
    47    15    10    1
    48    21    16   ar
    49    24    19    1
    50    27    39    1
    51    25    26    1
    52     4     5    1
