@<TRIPOS>MOLECULE
*****
 39 44 0 0 0
SMALL
GASTEIGER

@<TRIPOS>ATOM
      1 C         141.4430  143.9846  160.9352 C.ar    1  UNL1        0.0932
      2 C         141.0973  145.3641  160.4581 C.ar    1  UNL1        0.0405
      3 C         139.8321  146.0230  160.9220 C.ar    1  UNL1        0.1034
      4 N         138.9128  145.3026  161.8631 N.ar    1  UNL1       -0.2120
      5 C         139.2585  143.9232  162.3402 C.ar    1  UNL1        0.2207
      6 N         140.5237  143.2642  161.8763 N.ar    1  UNL1       -0.2130
      7 C         143.7810  142.7580  161.3526 C.ar    1  UNL1        0.0907
      8 N         144.8585  142.2003  160.4705 N.ar    1  UNL1       -0.2240
      9 C         144.4515  142.4232  159.0441 C.ar    1  UNL1        0.1632
     10 S         143.1225  143.1188  159.0446 S.2     1  UNL1       -0.0500
     11 C         142.7082  143.3257  160.4713 C.ar    1  UNL1        0.0674
     12 F         143.7656  142.7242  167.3525 F       1  UNL1       -0.2042
     13 C         143.7694  142.7327  165.8525 C.ar    1  UNL1        0.1401
     14 C         144.1551  143.9779  165.1105 C.ar    1  UNL1        0.0297
     15 C         144.1590  143.9863  163.6105 C.ar    1  UNL1        0.0038
     16 C         143.7772  142.7496  162.8525 C.ar    1  UNL1        0.0184
     17 C         143.3915  141.5044  163.5945 C.ar    1  UNL1        0.0038
     18 C         143.3876  141.4959  165.0945 C.ar    1  UNL1        0.0297
     19 N         145.2358  142.0212  157.8303 N.pl3   1  UNL1       -0.2830
     20 C         146.5023  142.7454  157.4820 C.3     1  UNL1        0.1247
     21 C         147.2866  142.3434  156.2682 C.3     1  UNL1        0.1636
     22 O         146.8044  141.2172  155.4028 O.3     1  UNL1       -0.3501
     23 C         145.5379  140.4930  155.7512 C.3     1  UNL1        0.1636
     24 C         144.7536  140.8949  156.9649 C.3     1  UNL1        0.1247
     25 N         138.3391  143.2027  163.2813 N.pl3   1  UNL1       -0.2825
     26 H         137.3753  143.1534  163.0866 H       1  UNL1        0.1551
     27 C         138.8882  142.5573  164.5190 C.ar    1  UNL1        0.0505
     28 C         139.7249  143.3565  165.4736 C.ar    1  UNL1        0.0159
     29 C         140.2740  142.7111  166.7114 C.ar    1  UNL1        0.0158
     30 C         139.9864  141.2665  166.9945 C.ar    1  UNL1        0.0480
     31 C         139.1497  140.4672  166.0399 C.ar    1  UNL1        0.0158
     32 C         138.6006  141.1126  164.8022 C.ar    1  UNL1        0.0159
     33 N         140.5355  140.6210  168.2323 N.pl3   1  UNL1       -0.3047
     34 C         139.7422  140.6442  169.5051 C.3     1  UNL1        0.1079
     35 C         140.2913  139.9988  170.7428 C.3     1  UNL1        0.0903
     36 N         141.6336  139.3302  170.7076 N.3     1  UNL1       -0.2946
     37 C         142.4269  139.3070  169.4348 C.3     1  UNL1        0.0903
     38 C         141.8778  139.9525  168.1971 C.3     1  UNL1        0.1079
     39 H         141.4857  138.3585  170.9802 H       1  UNL1        0.1233
@<TRIPOS>BOND
     1    12    13    1
     2    13    14   ar
     3    14    15   ar
     4    15    16   ar
     5    16     7    1
     6     7     8   ar
     7     8     9   ar
     8     9    19    1
     9    19    20    1
    10    20    21    1
    11    21    22    1
    12    22    23    1
    13    23    24    1
    14     9    10   ar
    15    10    11   ar
    16    11     1    1
    17     1     2   ar
    18     2     3   ar
    19     3     4   ar
    20     4     5   ar
    21     5    25    1
    22    25    27    1
    23    27    28   ar
    24    28    29   ar
    25    29    30   ar
    26    30    33    1
    27    33    34    1
    28    34    35    1
    29    35    36    1
    30    36    37    1
    31    37    38    1
    32    30    31   ar
    33    31    32   ar
    34     5     6   ar
    35    16    17   ar
    36    17    18   ar
    37    18    13   ar
    38    11     7   ar
    39     6     1   ar
    40    24    19    1
    41    32    27   ar
    42    38    33    1
    43    25    26    1
    44    36    39    1
@<TRIPOS>MOLECULE
*****
 39 44 0 0 0
SMALL
GASTEIGER

@<TRIPOS>ATOM
      1 C         139.9007  140.1373  160.6617 C.ar    1  UNL1        0.0932
      2 C         139.5312  141.3501  159.8599 C.ar    1  UNL1        0.0405
      3 C         138.4864  142.2972  160.3709 C.ar    1  UNL1        0.1034
      4 N         137.8109  142.0317  161.6836 N.ar    1  UNL1       -0.2120
      5 C         138.1804  140.8189  162.4853 C.ar    1  UNL1        0.2207
      6 N         139.2252  139.8718  161.9743 N.ar    1  UNL1       -0.2130
      7 C         141.9378  138.4374  160.9866 C.ar    1  UNL1        0.0907
      8 N         142.7871  137.6114  160.0666 N.ar    1  UNL1       -0.2240
      9 C         142.3197  137.8537  158.6620 C.ar    1  UNL1        0.1632
     10 S         141.1816  138.8294  158.7139 S.2     1  UNL1       -0.0500
     11 C         140.9456  139.1901  160.1507 C.ar    1  UNL1        0.0674
     12 F         142.4242  138.6864  166.9617 F       1  UNL1       -0.2042
     13 C         142.3026  138.6242  165.4679 C.ar    1  UNL1        0.1401
     14 C         141.5092  137.5254  164.8252 C.ar    1  UNL1        0.0297
     15 C         141.3876  137.4631  163.3314 C.ar    1  UNL1        0.0038
     16 C         142.0594  138.4996  162.4804 C.ar    1  UNL1        0.0184
     17 C         142.8527  139.5984  163.1232 C.ar    1  UNL1        0.0038
     18 C         142.9743  139.6607  164.6169 C.ar    1  UNL1        0.0297
     19 N         142.8903  137.2298  157.4229 N.pl3   1  UNL1       -0.2830
     20 C         143.0152  135.7384  157.3235 C.3     1  UNL1        0.1247
     21 C         143.5858  135.1145  156.0845 C.3     1  UNL1        0.1636
     22 O         144.0316  135.9820  154.9450 O.3     1  UNL1       -0.3501
     23 C         143.9067  137.4735  155.0445 C.3     1  UNL1        0.1636
     24 C         143.3361  138.0974  156.2834 C.3     1  UNL1        0.1247
     25 N         137.5050  140.5534  163.7981 N.pl3   1  UNL1       -0.2825
     26 H         136.5419  140.3509  163.8240 H       1  UNL1        0.1551
     27 C         138.2969  140.5963  165.0713 C.ar    1  UNL1        0.0505
     28 C         139.2218  141.7461  165.3407 C.ar    1  UNL1        0.0159
     29 C         140.0139  141.7891  166.6139 C.ar    1  UNL1        0.0158
     30 C         139.8809  140.6823  167.6176 C.ar    1  UNL1        0.0480
     31 C         138.9559  139.5325  167.3481 C.ar    1  UNL1        0.0158
     32 C         138.1639  139.4896  166.0749 C.ar    1  UNL1        0.0159
     33 N         140.6728  140.7253  168.8908 N.pl3   1  UNL1       -0.3047
     34 C         142.1244  141.1019  168.8587 C.3     1  UNL1        0.1079
     35 C         142.9164  141.1449  170.1318 C.3     1  UNL1        0.0903
     36 N         142.2567  140.8112  171.4370 N.3     1  UNL1       -0.2946
     37 C         140.8052  140.4345  171.4691 C.3     1  UNL1        0.0903
     38 C         140.0132  140.3916  170.1960 C.3     1  UNL1        0.1079
     39 H         142.3621  141.6288  172.0377 H       1  UNL1        0.1233
@<TRIPOS>BOND
     1    12    13    1
     2    13    14   ar
     3    14    15   ar
     4    15    16   ar
     5    16     7    1
     6     7     8   ar
     7     8     9   ar
     8     9    19    1
     9    19    20    1
    10    20    21    1
    11    21    22    1
    12    22    23    1
    13    23    24    1
    14     9    10   ar
    15    10    11   ar
    16    11     1    1
    17     1     2   ar
    18     2     3   ar
    19     3     4   ar
    20     4     5   ar
    21     5    25    1
    22    25    27    1
    23    27    28   ar
    24    28    29   ar
    25    29    30   ar
    26    30    33    1
    27    33    34    1
    28    34    35    1
    29    35    36    1
    30    36    37    1
    31    37    38    1
    32    30    31   ar
    33    31    32   ar
    34     5     6   ar
    35    16    17   ar
    36    17    18   ar
    37    18    13   ar
    38    11     7   ar
    39     6     1   ar
    40    24    19    1
    41    32    27   ar
    42    38    33    1
    43    25    26    1
    44    36    39    1
@<TRIPOS>MOLECULE
*****
 39 44 0 0 0
SMALL
GASTEIGER

@<TRIPOS>ATOM
      1 C         139.0531  140.6790  161.0521 C.ar    1  UNL1        0.0932
      2 C         137.8120  139.8791  160.7877 C.ar    1  UNL1        0.0405
      3 C         137.6078  138.5620  161.4759 C.ar    1  UNL1        0.1034
      4 N         138.6447  138.0448  162.4284 N.ar    1  UNL1       -0.2120
      5 C         139.8857  138.8447  162.6928 C.ar    1  UNL1        0.2207
      6 N         140.0899  140.1618  162.0046 N.ar    1  UNL1       -0.2130
      7 C         139.4018  143.3292  161.0363 C.ar    1  UNL1        0.0907
      8 N         139.5866  144.3683  159.9704 N.ar    1  UNL1       -0.2240
      9 C         139.5563  143.6774  158.6393 C.ar    1  UNL1        0.1632
     10 S         139.3527  142.2114  158.8825 S.2     1  UNL1       -0.0500
     11 C         139.2573  141.9961  160.3639 C.ar    1  UNL1        0.0674
     12 F         139.2650  144.3293  166.9508 F       1  UNL1       -0.2042
     13 C         139.2992  144.0792  165.4721 C.ar    1  UNL1        0.1401
     14 C         138.0372  144.1709  164.6666 C.ar    1  UNL1        0.0297
     15 C         138.0714  143.9209  163.1880 C.ar    1  UNL1        0.0038
     16 C         139.3676  143.5792  162.5149 C.ar    1  UNL1        0.0184
     17 C         140.6296  143.4875  163.3204 C.ar    1  UNL1        0.0038
     18 C         140.5954  143.7376  164.7991 C.ar    1  UNL1        0.0297
     19 N         139.7036  144.3369  157.3001 N.pl3   1  UNL1       -0.2830
     20 C         139.2582  143.6220  156.0590 C.3     1  UNL1        0.1247
     21 C         139.4055  144.2815  154.7198 C.3     1  UNL1        0.1636
     22 O         139.9982  145.6558  154.6218 O.3     1  UNL1       -0.3501
     23 C         140.4436  146.3708  155.8630 C.3     1  UNL1        0.1636
     24 C         140.2963  145.7114  157.2021 C.3     1  UNL1        0.1247
     25 N         140.9226  138.3275  163.6453 N.pl3   1  UNL1       -0.2825
     26 H         141.4741  137.5503  163.3982 H       1  UNL1        0.1551
     27 C         141.1194  138.9946  164.9744 C.ar    1  UNL1        0.0505
     28 C         140.0469  139.8810  165.5347 C.ar    1  UNL1        0.0159
     29 C         140.2436  140.5481  166.8638 C.ar    1  UNL1        0.0158
     30 C         141.5128  140.3287  167.6325 C.ar    1  UNL1        0.0480
     31 C         142.5854  139.4422  167.0721 C.ar    1  UNL1        0.0158
     32 C         142.3886  138.7752  165.7431 C.ar    1  UNL1        0.0159
     33 N         141.7096  140.9957  168.9615 N.pl3   1  UNL1       -0.3047
     34 C         142.6444  142.1623  169.0840 C.3     1  UNL1        0.1079
     35 C         142.8412  142.8294  170.4131 C.3     1  UNL1        0.0903
     36 N         142.1031  142.3298  171.6195 N.3     1  UNL1       -0.2946
     37 C         141.1683  141.1632  171.4971 C.3     1  UNL1        0.0903
     38 C         140.9715  140.4961  170.1680 C.3     1  UNL1        0.1079
     39 H         141.5526  143.1124  171.9729 H       1  UNL1        0.1233
@<TRIPOS>BOND
     1    12    13    1
     2    13    14   ar
     3    14    15   ar
     4    15    16   ar
     5    16     7    1
     6     7     8   ar
     7     8     9   ar
     8     9    19    1
     9    19    20    1
    10    20    21    1
    11    21    22    1
    12    22    23    1
    13    23    24    1
    14     9    10   ar
    15    10    11   ar
    16    11     1    1
    17     1     2   ar
    18     2     3   ar
    19     3     4   ar
    20     4     5   ar
    21     5    25    1
    22    25    27    1
    23    27    28   ar
    24    28    29   ar
    25    29    30   ar
    26    30    33    1
    27    33    34    1
    28    34    35    1
    29    35    36    1
    30    36    37    1
    31    37    38    1
    32    30    31   ar
    33    31    32   ar
    34     5     6   ar
    35    16    17   ar
    36    17    18   ar
    37    18    13   ar
    38    11     7   ar
    39     6     1   ar
    40    24    19    1
    41    32    27   ar
    42    38    33    1
    43    25    26    1
    44    36    39    1
@<TRIPOS>MOLECULE
*****
 39 44 0 0 0
SMALL
GASTEIGER

@<TRIPOS>ATOM
      1 C         140.9592  140.6471  160.5553 C.ar    1  UNL1        0.0932
      2 C         139.5831  141.0064  160.0784 C.ar    1  UNL1        0.0405
      3 C         138.8866  142.2117  160.6371 C.ar    1  UNL1        0.1034
      4 N         139.5662  143.0577  161.6728 N.ar    1  UNL1       -0.2120
      5 C         140.9422  142.6983  162.1497 C.ar    1  UNL1        0.2207
      6 N         141.6387  141.4930  161.5909 N.ar    1  UNL1       -0.2130
      7 C         142.4635  138.4488  160.7784 C.ar    1  UNL1        0.0907
      8 N         142.9736  137.4113  159.8228 N.ar    1  UNL1       -0.2240
      9 C         142.4811  137.7629  158.4503 C.ar    1  UNL1        0.1632
     10 S         141.6665  139.0179  158.5577 S.2     1  UNL1       -0.0500
     11 C         141.6557  139.4418  159.9965 C.ar    1  UNL1        0.0674
     12 F         143.4766  138.6008  166.6903 F       1  UNL1       -0.2042
     13 C         143.2233  138.5628  165.2123 C.ar    1  UNL1        0.1401
     14 C         141.9531  137.9649  164.6842 C.ar    1  UNL1        0.0297
     15 C         141.6998  137.9269  163.2062 C.ar    1  UNL1        0.0038
     16 C         142.7168  138.4868  162.2564 C.ar    1  UNL1        0.0184
     17 C         143.9870  139.0848  162.7845 C.ar    1  UNL1        0.0038
     18 C         144.2403  139.1227  164.2625 C.ar    1  UNL1        0.0297
     19 N         142.7550  136.9945  157.1916 N.pl3   1  UNL1       -0.2830
     20 C         143.2803  135.5916  157.2686 C.3     1  UNL1        0.1247
     21 C         143.5542  134.8232  156.0098 C.3     1  UNL1        0.1636
     22 O         143.3029  135.4577  154.6741 O.3     1  UNL1       -0.3501
     23 C         142.7776  136.8606  154.5971 C.3     1  UNL1        0.1636
     24 C         142.5037  137.6290  155.8558 C.3     1  UNL1        0.1247
     25 N         141.6218  143.5443  163.1853 N.pl3   1  UNL1       -0.2825
     26 H         142.0279  144.4039  162.9296 H       1  UNL1        0.1551
     27 C         141.6825  143.0805  164.6105 C.ar    1  UNL1        0.0505
     28 C         142.9479  142.4842  165.1519 C.ar    1  UNL1        0.0159
     29 C         143.0088  142.0204  166.5771 C.ar    1  UNL1        0.0158
     30 C         141.8041  142.1530  167.4610 C.ar    1  UNL1        0.0480
     31 C         140.5386  142.7494  166.9196 C.ar    1  UNL1        0.0158
     32 C         140.4779  143.2131  165.4944 C.ar    1  UNL1        0.0159
     33 N         141.8649  141.6893  168.8862 N.pl3   1  UNL1       -0.3047
     34 C         140.9199  142.2603  169.9016 C.3     1  UNL1        0.1079
     35 C         140.9807  141.7966  171.3268 C.3     1  UNL1        0.0903
     36 N         141.9863  140.7618  171.7366 N.3     1  UNL1       -0.2946
     37 C         142.9313  140.1908  170.7212 C.3     1  UNL1        0.0903
     38 C         142.8705  140.6545  169.2960 C.3     1  UNL1        0.1079
     39 H         141.4611  139.9778  172.1237 H       1  UNL1        0.1233
@<TRIPOS>BOND
     1    12    13    1
     2    13    14   ar
     3    14    15   ar
     4    15    16   ar
     5    16     7    1
     6     7     8   ar
     7     8     9   ar
     8     9    19    1
     9    19    20    1
    10    20    21    1
    11    21    22    1
    12    22    23    1
    13    23    24    1
    14     9    10   ar
    15    10    11   ar
    16    11     1    1
    17     1     2   ar
    18     2     3   ar
    19     3     4   ar
    20     4     5   ar
    21     5    25    1
    22    25    27    1
    23    27    28   ar
    24    28    29   ar
    25    29    30   ar
    26    30    33    1
    27    33    34    1
    28    34    35    1
    29    35    36    1
    30    36    37    1
    31    37    38    1
    32    30    31   ar
    33    31    32   ar
    34     5     6   ar
    35    16    17   ar
    36    17    18   ar
    37    18    13   ar
    38    11     7   ar
    39     6     1   ar
    40    24    19    1
    41    32    27   ar
    42    38    33    1
    43    25    26    1
    44    36    39    1
@<TRIPOS>MOLECULE
*****
 39 44 0 0 0
SMALL
GASTEIGER

@<TRIPOS>ATOM
      1 C         139.9412  142.1152  160.3699 C.ar    1  UNL1        0.0932
      2 C         140.3368  140.7855  159.7992 C.ar    1  UNL1        0.0405
      3 C         139.9426  139.5205  160.5023 C.ar    1  UNL1        0.1034
      4 N         139.1528  139.5850  161.7759 N.ar    1  UNL1       -0.2120
      5 C         138.7573  140.9147  162.3465 C.ar    1  UNL1        0.2207
      6 N         139.1514  142.1797  161.6434 N.ar    1  UNL1       -0.2130
      7 C         141.3310  144.3887  160.1584 C.ar    1  UNL1        0.0907
      8 N         141.4140  145.4906  159.1442 N.ar    1  UNL1       -0.2240
      9 C         140.4696  145.1633  158.0257 C.ar    1  UNL1        0.1632
     10 S         139.8029  143.8590  158.3487 S.2     1  UNL1       -0.0500
     11 C         140.3353  143.3803  159.6668 C.ar    1  UNL1        0.0674
     12 F         144.4365  144.0703  165.2824 F       1  UNL1       -0.2042
     13 C         143.6602  144.1499  164.0014 C.ar    1  UNL1        0.1401
     14 C         144.1920  143.4968  162.7602 C.ar    1  UNL1        0.0297
     15 C         143.4157  143.5764  161.4792 C.ar    1  UNL1        0.0038
     16 C         142.1074  144.3091  161.4394 C.ar    1  UNL1        0.0184
     17 C         141.5755  144.9622  162.6806 C.ar    1  UNL1        0.0038
     18 C         142.3519  144.8826  163.9616 C.ar    1  UNL1        0.0297
     19 N         140.2334  145.9944  156.7995 N.pl3   1  UNL1       -0.2830
     20 C         139.2630  147.1373  156.8436 C.3     1  UNL1        0.1247
     21 C         139.0268  147.9683  155.6174 C.3     1  UNL1        0.1636
     22 O         139.7610  147.6565  154.3472 O.3     1  UNL1       -0.3501
     23 C         140.7314  146.5136  154.3031 C.3     1  UNL1        0.1636
     24 C         140.9677  145.6825  155.5292 C.3     1  UNL1        0.1247
     25 N         137.9675  140.9793  163.6201 N.pl3   1  UNL1       -0.2825
     26 H         136.9862  141.0517  163.5877 H       1  UNL1        0.1551
     27 C         138.6729  140.9334  164.9431 C.ar    1  UNL1        0.0505
     28 C         138.4412  139.7828  165.8771 C.ar    1  UNL1        0.0159
     29 C         139.1465  139.7368  167.2002 C.ar    1  UNL1        0.0158
     30 C         140.0836  140.8416  167.5892 C.ar    1  UNL1        0.0480
     31 C         140.3153  141.9924  166.6552 C.ar    1  UNL1        0.0158
     32 C         139.6099  142.0382  165.3322 C.ar    1  UNL1        0.0159
     33 N         140.7889  140.7958  168.9122 N.pl3   1  UNL1       -0.3047
     34 C         140.0897  141.2700  170.1517 C.3     1  UNL1        0.1079
     35 C         140.7951  141.2241  171.4747 C.3     1  UNL1        0.0903
     36 N         142.1995  140.7041  171.5582 N.3     1  UNL1       -0.2946
     37 C         142.8987  140.2299  170.3188 C.3     1  UNL1        0.0903
     38 C         142.1934  140.2757  168.9958 C.3     1  UNL1        0.1079
     39 H         142.1840  139.9171  172.2069 H       1  UNL1        0.1233
@<TRIPOS>BOND
     1    12    13    1
     2    13    14   ar
     3    14    15   ar
     4    15    16   ar
     5    16     7    1
     6     7     8   ar
     7     8     9   ar
     8     9    19    1
     9    19    20    1
    10    20    21    1
    11    21    22    1
    12    22    23    1
    13    23    24    1
    14     9    10   ar
    15    10    11   ar
    16    11     1    1
    17     1     2   ar
    18     2     3   ar
    19     3     4   ar
    20     4     5   ar
    21     5    25    1
    22    25    27    1
    23    27    28   ar
    24    28    29   ar
    25    29    30   ar
    26    30    33    1
    27    33    34    1
    28    34    35    1
    29    35    36    1
    30    36    37    1
    31    37    38    1
    32    30    31   ar
    33    31    32   ar
    34     5     6   ar
    35    16    17   ar
    36    17    18   ar
    37    18    13   ar
    38    11     7   ar
    39     6     1   ar
    40    24    19    1
    41    32    27   ar
    42    38    33    1
    43    25    26    1
    44    36    39    1
@<TRIPOS>MOLECULE
*****
 39 44 0 0 0
SMALL
GASTEIGER

@<TRIPOS>ATOM
      1 C         140.4281  140.2403  160.3138 C.ar    1  UNL1        0.0932
      2 C         140.0504  141.6357  159.9134 C.ar    1  UNL1        0.0405
      3 C         139.0582  142.4081  160.7314 C.ar    1  UNL1        0.1034
      4 N         138.4437  141.7851  161.9496 N.ar    1  UNL1       -0.2120
      5 C         138.8214  140.3897  162.3499 C.ar    1  UNL1        0.2207
      6 N         139.8135  139.6173  161.5320 N.ar    1  UNL1       -0.2130
      7 C         142.8974  139.3896  159.7446 C.ar    1  UNL1        0.0907
      8 N         143.4995  138.5116  158.6880 N.ar    1  UNL1       -0.2240
      9 C         142.3945  138.0472  157.7861 C.ar    1  UNL1        0.1632
     10 S         141.1094  138.6382  158.2854 S.2     1  UNL1       -0.0500
     11 C         141.4203  139.4679  159.4958 C.ar    1  UNL1        0.0674
     12 F         145.8748  142.1110  164.1864 F       1  UNL1       -0.2042
     13 C         145.1304  141.4306  163.0760 C.ar    1  UNL1        0.1401
     14 C         144.8581  142.1639  161.7961 C.ar    1  UNL1        0.0297
     15 C         144.1138  141.4836  160.6857 C.ar    1  UNL1        0.0038
     16 C         143.6417  140.0700  160.8551 C.ar    1  UNL1        0.0184
     17 C         143.9141  139.3366  162.1349 C.ar    1  UNL1        0.0038
     18 C         144.6584  140.0170  163.2454 C.ar    1  UNL1        0.0297
     19 N         142.5477  137.1493  156.5943 N.pl3   1  UNL1       -0.2830
     20 C         142.0767  137.6065  155.2456 C.3     1  UNL1        0.1247
     21 C         142.2299  136.7086  154.0537 C.3     1  UNL1        0.1636
     22 O         142.8540  135.3538  154.2107 O.3     1  UNL1       -0.3501
     23 C         143.3250  134.8967  155.5594 C.3     1  UNL1        0.1636
     24 C         143.1718  135.7944  156.7513 C.3     1  UNL1        0.1247
     25 N         138.2068  139.7667  163.5682 N.pl3   1  UNL1       -0.2825
     26 H         137.3722  139.2505  163.4893 H       1  UNL1        0.1551
     27 C         138.8639  139.9302  164.9067 C.ar    1  UNL1        0.0505
     28 C         140.1564  140.6827  165.0208 C.ar    1  UNL1        0.0159
     29 C         140.8136  140.8462  166.3593 C.ar    1  UNL1        0.0158
     30 C         140.1781  140.2571  167.5837 C.ar    1  UNL1        0.0480
     31 C         138.8855  139.5046  167.4696 C.ar    1  UNL1        0.0158
     32 C         138.2284  139.3411  166.1311 C.ar    1  UNL1        0.0159
     33 N         140.8352  140.4206  168.9222 N.pl3   1  UNL1       -0.3047
     34 C         142.1523  139.7575  169.1970 C.3     1  UNL1        0.1079
     35 C         142.8093  139.9210  170.5355 C.3     1  UNL1        0.0903
     36 N         142.1493  140.7475  171.5991 N.3     1  UNL1       -0.2946
     37 C         140.8322  141.4106  171.3242 C.3     1  UNL1        0.0903
     38 C         140.1752  141.2471  169.9857 C.3     1  UNL1        0.1079
     39 H         142.8058  141.4880  171.8463 H       1  UNL1        0.1233
@<TRIPOS>BOND
     1    12    13    1
     2    13    14   ar
     3    14    15   ar
     4    15    16   ar
     5    16     7    1
     6     7     8   ar
     7     8     9   ar
     8     9    19    1
     9    19    20    1
    10    20    21    1
    11    21    22    1
    12    22    23    1
    13    23    24    1
    14     9    10   ar
    15    10    11   ar
    16    11     1    1
    17     1     2   ar
    18     2     3   ar
    19     3     4   ar
    20     4     5   ar
    21     5    25    1
    22    25    27    1
    23    27    28   ar
    24    28    29   ar
    25    29    30   ar
    26    30    33    1
    27    33    34    1
    28    34    35    1
    29    35    36    1
    30    36    37    1
    31    37    38    1
    32    30    31   ar
    33    31    32   ar
    34     5     6   ar
    35    16    17   ar
    36    17    18   ar
    37    18    13   ar
    38    11     7   ar
    39     6     1   ar
    40    24    19    1
    41    32    27   ar
    42    38    33    1
    43    25    26    1
    44    36    39    1
@<TRIPOS>MOLECULE
*****
 39 44 0 0 0
SMALL
GASTEIGER

@<TRIPOS>ATOM
      1 C         141.4747  139.4008  160.7930 C.ar    1  UNL1        0.0932
      2 C         142.0346  138.1499  160.1833 C.ar    1  UNL1        0.0405
      3 C         143.3504  137.6082  160.6579 C.ar    1  UNL1        0.1034
      4 N         144.1063  138.3175  161.7422 N.ar    1  UNL1       -0.2120
      5 C         143.5464  139.5684  162.3518 C.ar    1  UNL1        0.2207
      6 N         142.2305  140.1100  161.8772 N.ar    1  UNL1       -0.2130
      7 C         138.9095  140.0681  161.1390 C.ar    1  UNL1        0.0907
      8 N         137.8399  140.6569  160.2676 N.ar    1  UNL1       -0.2240
      9 C         138.4282  140.8951  158.9085 C.ar    1  UNL1        0.1632
     10 S         139.8614  140.4536  158.9399 S.2     1  UNL1       -0.0500
     11 C         140.1588  139.9425  160.3184 C.ar    1  UNL1        0.0674
     12 F         138.2980  138.4925  166.8961 F       1  UNL1       -0.2042
     13 C         138.4508  138.8864  165.4568 C.ar    1  UNL1        0.1401
     14 C         138.8549  137.8625  164.4378 C.ar    1  UNL1        0.0297
     15 C         139.0078  138.2564  162.9986 C.ar    1  UNL1        0.0038
     16 C         138.7566  139.6742  162.5783 C.ar    1  UNL1        0.0184
     17 C         138.3526  140.6981  163.5972 C.ar    1  UNL1        0.0038
     18 C         138.1997  140.3042  165.0365 C.ar    1  UNL1        0.0297
     19 N         137.7094  141.4733  157.7257 N.pl3   1  UNL1       -0.2830
     20 C         138.1004  142.8210  157.1959 C.3     1  UNL1        0.1247
     21 C         137.3816  143.3992  156.0131 C.3     1  UNL1        0.1636
     22 O         136.2720  142.6297  155.3601 O.3     1  UNL1       -0.3501
     23 C         135.8810  141.2820  155.8899 C.3     1  UNL1        0.1636
     24 C         136.5997  140.7037  157.0727 C.3     1  UNL1        0.1247
     25 N         144.3023  140.2776  163.4360 N.pl3   1  UNL1       -0.2825
     26 H         145.1946  140.6501  163.2512 H       1  UNL1        0.1551
     27 C         143.6985  140.4193  164.8019 C.ar    1  UNL1        0.0505
     28 C         143.6148  141.7702  165.4484 C.ar    1  UNL1        0.0159
     29 C         143.0111  141.9119  166.8143 C.ar    1  UNL1        0.0158
     30 C         142.4911  140.7027  167.5335 C.ar    1  UNL1        0.0480
     31 C         142.5748  139.3517  166.8869 C.ar    1  UNL1        0.0158
     32 C         143.1785  139.2101  165.5211 C.ar    1  UNL1        0.0159
     33 N         141.8873  140.8444  168.8994 N.pl3   1  UNL1       -0.3047
     34 C         142.3946  141.8989  169.8378 C.3     1  UNL1        0.1079
     35 C         141.7909  142.0406  171.2036 C.3     1  UNL1        0.0903
     36 N         140.6799  141.1277  171.6309 N.3     1  UNL1       -0.2946
     37 C         140.1727  140.0732  170.6925 C.3     1  UNL1        0.0903
     38 C         140.7764  139.9316  169.3267 C.3     1  UNL1        0.1079
     39 H         139.8842  141.7216  171.8643 H       1  UNL1        0.1233
@<TRIPOS>BOND
     1    12    13    1
     2    13    14   ar
     3    14    15   ar
     4    15    16   ar
     5    16     7    1
     6     7     8   ar
     7     8     9   ar
     8     9    19    1
     9    19    20    1
    10    20    21    1
    11    21    22    1
    12    22    23    1
    13    23    24    1
    14     9    10   ar
    15    10    11   ar
    16    11     1    1
    17     1     2   ar
    18     2     3   ar
    19     3     4   ar
    20     4     5   ar
    21     5    25    1
    22    25    27    1
    23    27    28   ar
    24    28    29   ar
    25    29    30   ar
    26    30    33    1
    27    33    34    1
    28    34    35    1
    29    35    36    1
    30    36    37    1
    31    37    38    1
    32    30    31   ar
    33    31    32   ar
    34     5     6   ar
    35    16    17   ar
    36    17    18   ar
    37    18    13   ar
    38    11     7   ar
    39     6     1   ar
    40    24    19    1
    41    32    27   ar
    42    38    33    1
    43    25    26    1
    44    36    39    1
@<TRIPOS>MOLECULE
*****
 39 44 0 0 0
SMALL
GASTEIGER

@<TRIPOS>ATOM
      1 C         142.6927  140.1162  160.5742 C.ar    1  UNL1        0.0932
      2 C         142.7982  138.6293  160.4060 C.ar    1  UNL1        0.0405
      3 C         141.8873  137.7208  161.1773 C.ar    1  UNL1        0.1034
      4 N         140.8710  138.2991  162.1168 N.ar    1  UNL1       -0.2120
      5 C         140.7656  139.7859  162.2851 C.ar    1  UNL1        0.2207
      6 N         141.6765  140.6944  161.5138 N.ar    1  UNL1       -0.2130
      7 C         144.4334  142.1351  160.3761 C.ar    1  UNL1        0.0907
      8 N         145.1872  142.7789  159.2504 N.ar    1  UNL1       -0.2240
      9 C         144.8234  142.0665  157.9815 C.ar    1  UNL1        0.1632
     10 S         143.8447  140.9823  158.3230 S.2     1  UNL1       -0.0500
     11 C         143.6036  141.0247  159.8029 C.ar    1  UNL1        0.0674
     12 F         144.6916  143.7226  166.1565 F       1  UNL1       -0.2042
     13 C         144.6270  143.3258  164.7114 C.ar    1  UNL1        0.1401
     14 C         143.8296  144.1478  163.7428 C.ar    1  UNL1        0.0297
     15 C         143.7651  143.7509  162.2977 C.ar    1  UNL1        0.0038
     16 C         144.4979  142.5320  161.8212 C.ar    1  UNL1        0.0184
     17 C         145.2953  141.7099  162.7898 C.ar    1  UNL1        0.0038
     18 C         145.3599  142.1068  164.2349 C.ar    1  UNL1        0.0297
     19 N         145.3464  142.3827  156.6117 N.pl3   1  UNL1       -0.2830
     20 C         144.3908  142.6730  155.4926 C.3     1  UNL1        0.1247
     21 C         144.9139  142.9892  154.1228 C.3     1  UNL1        0.1636
     22 O         146.3925  143.0151  153.8721 O.3     1  UNL1       -0.3501
     23 C         147.3481  142.7248  154.9913 C.3     1  UNL1        0.1636
     24 C         146.8251  142.4086  156.3610 C.3     1  UNL1        0.1247
     25 N         139.7493  140.3641  163.2246 N.pl3   1  UNL1       -0.2825
     26 H         138.8288  140.5257  162.9153 H       1  UNL1        0.1551
     27 C         140.1356  140.6963  164.6355 C.ar    1  UNL1        0.0505
     28 C         139.8900  139.7044  165.7336 C.ar    1  UNL1        0.0159
     29 C         140.2762  140.0365  167.1445 C.ar    1  UNL1        0.0158
     30 C         140.9082  141.3604  167.4572 C.ar    1  UNL1        0.0480
     31 C         141.1539  142.3523  166.3590 C.ar    1  UNL1        0.0158
     32 C         140.7676  142.0202  164.9482 C.ar    1  UNL1        0.0159
     33 N         141.2945  141.6925  168.8681 N.pl3   1  UNL1       -0.3047
     34 C         142.5089  142.5315  169.1354 C.3     1  UNL1        0.1079
     35 C         142.8952  142.8636  170.5462 C.3     1  UNL1        0.0903
     36 N         142.0671  142.3567  171.6897 N.3     1  UNL1       -0.2946
     37 C         140.8528  141.5178  171.4224 C.3     1  UNL1        0.0903
     38 C         140.4665  141.1857  170.0115 C.3     1  UNL1        0.1079
     39 H         141.7509  143.1752  172.2097 H       1  UNL1        0.1233
@<TRIPOS>BOND
     1    12    13    1
     2    13    14   ar
     3    14    15   ar
     4    15    16   ar
     5    16     7    1
     6     7     8   ar
     7     8     9   ar
     8     9    19    1
     9    19    20    1
    10    20    21    1
    11    21    22    1
    12    22    23    1
    13    23    24    1
    14     9    10   ar
    15    10    11   ar
    16    11     1    1
    17     1     2   ar
    18     2     3   ar
    19     3     4   ar
    20     4     5   ar
    21     5    25    1
    22    25    27    1
    23    27    28   ar
    24    28    29   ar
    25    29    30   ar
    26    30    33    1
    27    33    34    1
    28    34    35    1
    29    35    36    1
    30    36    37    1
    31    37    38    1
    32    30    31   ar
    33    31    32   ar
    34     5     6   ar
    35    16    17   ar
    36    17    18   ar
    37    18    13   ar
    38    11     7   ar
    39     6     1   ar
    40    24    19    1
    41    32    27   ar
    42    38    33    1
    43    25    26    1
    44    36    39    1
@<TRIPOS>MOLECULE
*****
 39 44 0 0 0
SMALL
GASTEIGER

@<TRIPOS>ATOM
      1 C         142.5012  142.9158  160.5518 C.ar    1  UNL1        0.0932
      2 C         143.9915  142.9064  160.3809 C.ar    1  UNL1        0.0405
      3 C         144.8260  141.9098  161.1296 C.ar    1  UNL1        0.1034
      4 N         144.1703  140.9228  162.0493 N.ar    1  UNL1       -0.2120
      5 C         142.6801  140.9323  162.2202 C.ar    1  UNL1        0.2207
      6 N         141.8456  141.9288  161.4714 N.ar    1  UNL1       -0.2130
      7 C         140.5687  144.7547  160.3817 C.ar    1  UNL1        0.0907
      8 N         140.0072  145.6044  159.2804 N.ar    1  UNL1       -0.2240
      9 C         140.7582  145.2872  158.0213 C.ar    1  UNL1        0.1632
     10 S         141.7839  144.2415  158.3443 S.2     1  UNL1       -0.0500
     11 C         141.6668  143.9124  159.8031 C.ar    1  UNL1        0.0674
     12 F         138.7430  144.7294  166.0971 F       1  UNL1       -0.2042
     13 C         139.1994  144.7357  164.6682 C.ar    1  UNL1        0.1401
     14 C         140.5852  145.1962  164.3256 C.ar    1  UNL1        0.0297
     15 C         141.0417  145.2025  162.8967 C.ar    1  UNL1        0.0038
     16 C         140.1123  144.7483  161.8105 C.ar    1  UNL1        0.0184
     17 C         138.7265  144.2879  162.1531 C.ar    1  UNL1        0.0038
     18 C         138.2700  144.2816  163.5820 C.ar    1  UNL1        0.0297
     19 N         140.5246  145.9070  156.6755 N.pl3   1  UNL1       -0.2830
     20 C         141.3599  145.4887  155.5020 C.3     1  UNL1        0.1247
     21 C         141.1262  146.1085  154.1561 C.3     1  UNL1        0.1636
     22 O         140.0573  147.1466  153.9839 O.3     1  UNL1       -0.3501
     23 C         139.2220  147.5649  155.1574 C.3     1  UNL1        0.1636
     24 C         139.4556  146.9452  156.5032 C.3     1  UNL1        0.1247
     25 N         142.0244  139.9452  163.1398 N.pl3   1  UNL1       -0.2825
     26 H         141.7438  139.0655  162.7984 H       1  UNL1        0.1551
     27 C         141.7962  140.2985  164.5796 C.ar    1  UNL1        0.0505
     28 C         142.3134  139.3997  165.6635 C.ar    1  UNL1        0.0159
     29 C         142.0853  139.7530  167.1034 C.ar    1  UNL1        0.0158
     30 C         141.3399  141.0050  167.4594 C.ar    1  UNL1        0.0480
     31 C         140.8226  141.9038  166.3755 C.ar    1  UNL1        0.0158
     32 C         141.0508  141.5505  164.9356 C.ar    1  UNL1        0.0159
     33 N         141.1117  141.3583  168.8992 N.pl3   1  UNL1       -0.3047
     34 C         140.1662  142.4658  169.2589 C.3     1  UNL1        0.1079
     35 C         139.9381  142.8191  170.6987 C.3     1  UNL1        0.0903
     36 N         140.6553  142.0649  171.7788 N.3     1  UNL1       -0.2946
     37 C         141.6008  140.9573  171.4191 C.3     1  UNL1        0.0903
     38 C         141.8290  140.6040  169.9793 C.3     1  UNL1        0.1079
     39 H         139.9385  141.6568  172.3788 H       1  UNL1        0.1233
@<TRIPOS>BOND
     1    12    13    1
     2    13    14   ar
     3    14    15   ar
     4    15    16   ar
     5    16     7    1
     6     7     8   ar
     7     8     9   ar
     8     9    19    1
     9    19    20    1
    10    20    21    1
    11    21    22    1
    12    22    23    1
    13    23    24    1
    14     9    10   ar
    15    10    11   ar
    16    11     1    1
    17     1     2   ar
    18     2     3   ar
    19     3     4   ar
    20     4     5   ar
    21     5    25    1
    22    25    27    1
    23    27    28   ar
    24    28    29   ar
    25    29    30   ar
    26    30    33    1
    27    33    34    1
    28    34    35    1
    29    35    36    1
    30    36    37    1
    31    37    38    1
    32    30    31   ar
    33    31    32   ar
    34     5     6   ar
    35    16    17   ar
    36    17    18   ar
    37    18    13   ar
    38    11     7   ar
    39     6     1   ar
    40    24    19    1
    41    32    27   ar
    42    38    33    1
    43    25    26    1
    44    36    39    1
