@<TRIPOS>MOLECULE
*****
 39 42 0 0 0
SMALL
GASTEIGER

@<TRIPOS>ATOM
      1 C         142.9761  138.7995  157.5110 C.2     1  UNL1       -0.0078
      2 C         143.8249  139.8380  156.8393 C.2     1  UNL1       -0.0414
      3 C         144.2641  139.6433  155.4184 C.3     1  UNL1        0.0394
      4 C         145.1129  140.6818  154.7467 C.3     1  UNL1        0.0767
      5 N         145.5224  141.9150  155.4960 N.3     1  UNL1       -0.2683
      6 C         145.0832  142.1097  156.9170 C.3     1  UNL1        0.0767
      7 C         144.2345  141.0713  157.5887 C.3     1  UNL1        0.0394
      8 C         141.6586  139.3836  161.7740 C.ar    1  UNL1        0.0536
      9 C         140.9050  140.0456  160.6587 C.ar    1  UNL1        0.0045
     10 C         141.3442  139.8509  159.2377 C.ar    1  UNL1        0.0001
     11 C         142.5370  138.9942  158.9320 C.ar    1  UNL1       -0.0006
     12 C         143.2905  138.3323  160.0473 C.ar    1  UNL1        0.0001
     13 C         142.8513  138.5270  161.4683 C.ar    1  UNL1        0.0045
     14 N         140.1159  138.7347  163.7612 N.am    1  UNL1       -0.2761
     15 C         141.2194  139.5783  163.1950 C.2     1  UNL1        0.2490
     16 O         141.8836  140.6167  164.0497 O.2     1  UNL1       -0.2699
     17 C         138.4022  139.6625  165.4795 C.3     1  UNL1        0.0233
     18 C         139.6767  138.9294  165.1822 C.3     1  UNL1        0.0938
     19 C         139.4516  137.6964  162.9064 C.3     1  UNL1        0.0938
     20 C         138.2013  138.0352  162.1503 C.3     1  UNL1        0.0233
     21 C         142.5666  137.5664  156.7617 C.ar    1  UNL1       -0.0005
     22 C         143.5933  136.5362  156.3944 C.ar    1  UNL1        0.0013
     23 C         143.1838  135.3031  155.6451 C.ar    1  UNL1        0.0147
     24 C         141.7476  135.0999  155.2630 C.ar    1  UNL1        0.0503
     25 C         140.7209  136.1300  155.6303 C.ar    1  UNL1        0.0147
     26 C         141.1304  137.3632  156.3796 C.ar    1  UNL1        0.0013
     27 N         141.3381  133.8667  154.5137 N.am    1  UNL1       -0.2839
     28 C         141.5035  132.5160  155.1448 C.2     1  UNL1        0.2266
     29 C         141.0940  131.2829  154.3954 C.3     1  UNL1        0.0949
     30 O         142.0785  132.3985  156.5252 O.2     1  UNL1       -0.2748
     31 H         140.9607  133.9438  153.6076 H       1  UNL1        0.1549
     32 C         146.3712  142.9536  154.8243 C.3     1  UNL1        0.0992
     33 C         147.8368  142.7075  154.6211 C.ar    1  UNL1       -0.0060
     34 C         148.5497  143.3389  153.4620 C.ar    1  UNL1       -0.0006
     35 C         150.0153  143.0928  153.2588 C.ar    1  UNL1        0.0294
     36 C         150.7682  142.2155  154.2147 C.ar    1  UNL1        0.1401
     37 F         152.2338  141.9694  154.0115 F       1  UNL1       -0.2042
     38 C         150.0553  141.5842  155.3737 C.ar    1  UNL1        0.0294
     39 C         148.5897  141.8302  155.5769 C.ar    1  UNL1       -0.0006
@<TRIPOS>BOND
     1    17    18    1
     2    18    14    1
     3    14    19    1
     4    19    20    1
     5    14    15   am
     6    15    16    2
     7    15     8    1
     8     8     9   ar
     9     9    10   ar
    10    10    11   ar
    11    11     1    1
    12     1     2    2
    13     2     3    1
    14     3     4    1
    15     4     5    1
    16     5    32    1
    17    32    33    1
    18    33    34   ar
    19    34    35   ar
    20    35    36   ar
    21    36    37    1
    22    36    38   ar
    23    38    39   ar
    24     5     6    1
    25     6     7    1
    26     1    21    1
    27    21    22   ar
    28    22    23   ar
    29    23    24   ar
    30    24    27    1
    31    27    28   am
    32    28    29    1
    33    28    30    2
    34    24    25   ar
    35    25    26   ar
    36    11    12   ar
    37    12    13   ar
    38    13     8   ar
    39     7     2    1
    40    26    21   ar
    41    39    33   ar
    42    27    31    1
@<TRIPOS>MOLECULE
*****
 39 42 0 0 0
SMALL
GASTEIGER

@<TRIPOS>ATOM
      1 C         141.2649  139.6659  158.1374 C.2     1  UNL1       -0.0078
      2 C         141.3917  139.5547  159.6278 C.2     1  UNL1       -0.0414
      3 C         141.1181  140.7478  160.4949 C.3     1  UNL1        0.0394
      4 C         141.2449  140.6365  161.9855 C.3     1  UNL1        0.0767
      5 N         141.6453  139.3323  162.6088 N.3     1  UNL1       -0.2683
      6 C         141.9190  138.1393  161.7418 C.3     1  UNL1        0.0767
      7 C         141.7922  138.2505  160.2513 C.3     1  UNL1        0.0394
      8 C         142.0859  136.0869  155.5362 C.ar    1  UNL1        0.0536
      9 C         140.6772  136.4229  155.9267 C.ar    1  UNL1        0.0045
     10 C         140.4035  137.6159  156.7938 C.ar    1  UNL1        0.0001
     11 C         141.5386  138.4729  157.2703 C.ar    1  UNL1       -0.0006
     12 C         142.9473  138.1369  156.8798 C.ar    1  UNL1        0.0001
     13 C         143.2210  136.9439  156.0127 C.ar    1  UNL1        0.0045
     14 N         142.7416  133.5847  155.2936 N.am    1  UNL1       -0.2761
     15 C         142.3595  134.8938  154.6691 C.2     1  UNL1        0.2490
     16 O         142.2511  135.0100  153.1776 O.2     1  UNL1       -0.2699
     17 C         142.6526  131.0172  154.9056 C.3     1  UNL1        0.0233
     18 C         143.0153  132.3916  154.4265 C.3     1  UNL1        0.0938
     19 C         142.8501  133.4684  156.7852 C.3     1  UNL1        0.0938
     20 C         144.1955  133.5244  157.4459 C.3     1  UNL1        0.0233
     21 C         140.8645  140.9701  157.5140 C.ar    1  UNL1       -0.0005
     22 C         141.9160  141.9236  157.0288 C.ar    1  UNL1        0.0013
     23 C         141.5155  143.2278  156.4054 C.ar    1  UNL1        0.0147
     24 C         140.0637  143.5786  156.2672 C.ar    1  UNL1        0.0503
     25 C         139.0123  142.6252  156.7524 C.ar    1  UNL1        0.0147
     26 C         139.4127  141.3209  157.3758 C.ar    1  UNL1        0.0013
     27 N         139.6633  144.8829  155.6438 N.am    1  UNL1       -0.2839
     28 C         139.6801  146.1410  156.4604 C.2     1  UNL1        0.2266
     29 C         139.2798  147.4452  155.8369 C.3     1  UNL1        0.0949
     30 O         140.0974  146.0949  157.9004 O.2     1  UNL1       -0.2748
     31 H         139.3894  144.9132  154.6986 H       1  UNL1        0.1549
     32 C         141.7721  139.2211  164.0994 C.3     1  UNL1        0.0992
     33 C         140.5564  138.9592  164.9380 C.ar    1  UNL1       -0.0060
     34 C         139.7080  137.7510  164.6722 C.ar    1  UNL1       -0.0006
     35 C         138.4922  137.4890  165.5108 C.ar    1  UNL1        0.0294
     36 C         138.1248  138.4353  166.6153 C.ar    1  UNL1        0.1401
     37 F         136.9091  138.1733  167.4539 F       1  UNL1       -0.2042
     38 C         138.9732  139.6434  166.8811 C.ar    1  UNL1        0.0294
     39 C         140.1890  139.9053  166.0424 C.ar    1  UNL1       -0.0006
@<TRIPOS>BOND
     1    17    18    1
     2    18    14    1
     3    14    19    1
     4    19    20    1
     5    14    15   am
     6    15    16    2
     7    15     8    1
     8     8     9   ar
     9     9    10   ar
    10    10    11   ar
    11    11     1    1
    12     1     2    2
    13     2     3    1
    14     3     4    1
    15     4     5    1
    16     5    32    1
    17    32    33    1
    18    33    34   ar
    19    34    35   ar
    20    35    36   ar
    21    36    37    1
    22    36    38   ar
    23    38    39   ar
    24     5     6    1
    25     6     7    1
    26     1    21    1
    27    21    22   ar
    28    22    23   ar
    29    23    24   ar
    30    24    27    1
    31    27    28   am
    32    28    29    1
    33    28    30    2
    34    24    25   ar
    35    25    26   ar
    36    11    12   ar
    37    12    13   ar
    38    13     8   ar
    39     7     2    1
    40    26    21   ar
    41    39    33   ar
    42    27    31    1
@<TRIPOS>MOLECULE
*****
 39 42 0 0 0
SMALL
GASTEIGER

@<TRIPOS>ATOM
      1 C         141.4461  139.3538  157.9168 C.2     1  UNL1       -0.0078
      2 C         141.5780  139.2700  159.4086 C.2     1  UNL1       -0.0414
      3 C         142.0506  137.9988  160.0496 C.3     1  UNL1        0.0394
      4 C         142.1824  137.9151  161.5415 C.3     1  UNL1        0.0767
      5 N         141.8417  139.1024  162.3923 N.3     1  UNL1       -0.2683
      6 C         141.3691  140.3736  161.7514 C.3     1  UNL1        0.0767
      7 C         141.2372  140.4574  160.2596 C.3     1  UNL1        0.0394
      8 C         140.0283  143.1673  155.9940 C.ar    1  UNL1        0.0536
      9 C         141.4769  142.7848  155.9226 C.ar    1  UNL1        0.0045
     10 C         141.9496  141.5137  156.5636 C.ar    1  UNL1        0.0001
     11 C         140.9735  140.6249  157.2759 C.ar    1  UNL1       -0.0006
     12 C         139.5249  141.0074  157.3473 C.ar    1  UNL1        0.0001
     13 C         139.0523  142.2785  156.7063 C.ar    1  UNL1        0.0045
     14 N         139.7056  145.7439  156.0764 N.am    1  UNL1       -0.2761
     15 C         139.5557  144.4384  155.3531 C.2     1  UNL1        0.2490
     16 O         138.9332  144.4041  153.9888 O.2     1  UNL1       -0.2699
     17 C         140.1057  147.7238  154.4425 C.3     1  UNL1        0.0233
     18 C         139.2330  147.0150  155.4355 C.3     1  UNL1        0.0938
     19 C         140.3281  145.7782  157.4407 C.3     1  UNL1        0.0938
     20 C         141.8018  146.0165  157.5869 C.3     1  UNL1        0.0233
     21 C         141.7869  138.1664  157.0660 C.ar    1  UNL1       -0.0005
     22 C         140.7016  137.2423  156.5986 C.ar    1  UNL1        0.0013
     23 C         141.0424  136.0550  155.7478 C.ar    1  UNL1        0.0147
     24 C         142.4684  135.7917  155.3642 C.ar    1  UNL1        0.0503
     25 C         143.5537  136.7157  155.8314 C.ar    1  UNL1        0.0147
     26 C         143.2129  137.9031  156.6823 C.ar    1  UNL1        0.0013
     27 N         142.8092  134.6042  154.5132 N.am    1  UNL1       -0.2839
     28 C         142.7458  133.2226  155.0937 C.2     1  UNL1        0.2266
     29 C         143.0865  132.0353  154.2428 C.3     1  UNL1        0.0949
     30 O         142.3417  133.0283  156.5252 O.2     1  UNL1       -0.2748
     31 H         143.0744  134.7317  153.5738 H       1  UNL1        0.1549
     32 C         141.9735  139.0186  163.8842 C.3     1  UNL1        0.0992
     33 C         140.7478  138.8918  164.7395 C.ar    1  UNL1       -0.0060
     34 C         139.8663  137.6848  164.6125 C.ar    1  UNL1       -0.0006
     35 C         138.6405  137.5579  165.4678 C.ar    1  UNL1        0.0294
     36 C         138.2963  138.6381  166.4500 C.ar    1  UNL1        0.1401
     37 F         137.0706  138.5113  167.3053 F       1  UNL1       -0.2042
     38 C         139.1778  139.8451  166.5770 C.ar    1  UNL1        0.0294
     39 C         140.4036  139.9719  165.7217 C.ar    1  UNL1       -0.0006
@<TRIPOS>BOND
     1    17    18    1
     2    18    14    1
     3    14    19    1
     4    19    20    1
     5    14    15   am
     6    15    16    2
     7    15     8    1
     8     8     9   ar
     9     9    10   ar
    10    10    11   ar
    11    11     1    1
    12     1     2    2
    13     2     3    1
    14     3     4    1
    15     4     5    1
    16     5    32    1
    17    32    33    1
    18    33    34   ar
    19    34    35   ar
    20    35    36   ar
    21    36    37    1
    22    36    38   ar
    23    38    39   ar
    24     5     6    1
    25     6     7    1
    26     1    21    1
    27    21    22   ar
    28    22    23   ar
    29    23    24   ar
    30    24    27    1
    31    27    28   am
    32    28    29    1
    33    28    30    2
    34    24    25   ar
    35    25    26   ar
    36    11    12   ar
    37    12    13   ar
    38    13     8   ar
    39     7     2    1
    40    26    21   ar
    41    39    33   ar
    42    27    31    1
@<TRIPOS>MOLECULE
*****
 39 42 0 0 0
SMALL
GASTEIGER

@<TRIPOS>ATOM
      1 C         140.9405  141.4408  158.8266 C.2     1  UNL1       -0.0078
      2 C         141.6560  140.3498  158.0864 C.2     1  UNL1       -0.0414
      3 C         142.2228  140.6153  156.7232 C.3     1  UNL1        0.0394
      4 C         142.9383  139.5242  155.9831 C.3     1  UNL1        0.0767
      5 N         143.0870  138.1679  156.6061 N.3     1  UNL1       -0.2683
      6 C         142.5201  137.9025  157.9693 C.3     1  UNL1        0.0767
      7 C         141.8046  138.9934  158.7094 C.3     1  UNL1        0.0394
      8 C         139.2399  140.6445  162.9161 C.ar    1  UNL1        0.0536
      9 C         140.6735  141.0601  162.7679 C.ar    1  UNL1        0.0045
     10 C         141.2404  141.3256  161.4047 C.ar    1  UNL1        0.0001
     11 C         140.3736  141.1754  160.1897 C.ar    1  UNL1       -0.0006
     12 C         138.9400  140.7597  160.3380 C.ar    1  UNL1        0.0001
     13 C         138.3732  140.4943  161.7011 C.ar    1  UNL1        0.0045
     14 N         138.6777  138.9860  164.8352 N.am    1  UNL1       -0.2761
     15 C         138.6731  140.3791  164.2792 C.2     1  UNL1        0.2490
     16 O         138.1016  141.5068  165.0865 O.2     1  UNL1       -0.2699
     17 C         137.7251  137.3253  166.5916 C.3     1  UNL1        0.0233
     18 C         138.1108  138.7206  166.1984 C.3     1  UNL1        0.0938
     19 C         139.2492  137.8582  164.0280 C.3     1  UNL1        0.0938
     20 C         140.6679  137.4231  164.2466 C.3     1  UNL1        0.0233
     21 C         140.7918  142.7971  158.2036 C.ar    1  UNL1       -0.0005
     22 C         139.5537  143.1340  157.4265 C.ar    1  UNL1        0.0013
     23 C         139.4051  144.4903  156.8035 C.ar    1  UNL1        0.0147
     24 C         140.4945  145.5099  156.9575 C.ar    1  UNL1        0.0503
     25 C         141.7325  145.1731  157.7344 C.ar    1  UNL1        0.0147
     26 C         141.8812  143.8167  158.3575 C.ar    1  UNL1        0.0013
     27 N         140.3458  146.8663  156.3344 N.am    1  UNL1       -0.2839
     28 C         140.3459  147.0099  154.8413 C.2     1  UNL1        0.2266
     29 C         140.1972  148.3662  154.2183 C.3     1  UNL1        0.0949
     30 O         140.4947  145.7971  153.9712 O.2     1  UNL1       -0.2748
     31 H         140.2481  147.6623  156.9055 H       1  UNL1        0.1549
     32 C         143.8025  137.0769  155.8659 C.3     1  UNL1        0.0992
     33 C         143.2183  135.6962  155.8163 C.ar    1  UNL1       -0.0060
     34 C         143.7196  134.6356  156.7512 C.ar    1  UNL1       -0.0006
     35 C         143.1353  133.2550  156.7015 C.ar    1  UNL1        0.0294
     36 C         142.0498  132.9349  155.7170 C.ar    1  UNL1        0.1401
     37 F         141.4655  131.5543  155.6674 F       1  UNL1       -0.2042
     38 C         141.5485  133.9955  154.7822 C.ar    1  UNL1        0.0294
     39 C         142.1327  135.3761  154.8319 C.ar    1  UNL1       -0.0006
@<TRIPOS>BOND
     1    17    18    1
     2    18    14    1
     3    14    19    1
     4    19    20    1
     5    14    15   am
     6    15    16    2
     7    15     8    1
     8     8     9   ar
     9     9    10   ar
    10    10    11   ar
    11    11     1    1
    12     1     2    2
    13     2     3    1
    14     3     4    1
    15     4     5    1
    16     5    32    1
    17    32    33    1
    18    33    34   ar
    19    34    35   ar
    20    35    36   ar
    21    36    37    1
    22    36    38   ar
    23    38    39   ar
    24     5     6    1
    25     6     7    1
    26     1    21    1
    27    21    22   ar
    28    22    23   ar
    29    23    24   ar
    30    24    27    1
    31    27    28   am
    32    28    29    1
    33    28    30    2
    34    24    25   ar
    35    25    26   ar
    36    11    12   ar
    37    12    13   ar
    38    13     8   ar
    39     7     2    1
    40    26    21   ar
    41    39    33   ar
    42    27    31    1
@<TRIPOS>MOLECULE
*****
 39 42 0 0 0
SMALL
GASTEIGER

@<TRIPOS>ATOM
      1 C         142.4912  140.4450  157.8804 C.2     1  UNL1       -0.0078
      2 C         143.1088  140.5816  159.2405 C.2     1  UNL1       -0.0414
      3 C         143.0683  141.9007  159.9535 C.3     1  UNL1        0.0394
      4 C         143.6858  142.0373  161.3137 C.3     1  UNL1        0.0767
      5 N         144.3439  140.8549  161.9608 N.3     1  UNL1       -0.2683
      6 C         144.3844  139.5358  161.2478 C.3     1  UNL1        0.0767
      7 C         143.7669  139.3992  159.8877 C.3     1  UNL1        0.0394
      8 C         142.6127  136.4877  155.7414 C.ar    1  UNL1        0.0536
      9 C         141.4492  136.8272  156.6251 C.ar    1  UNL1        0.0045
     10 C         141.4087  138.1463  157.3381 C.ar    1  UNL1        0.0001
     11 C         142.5317  139.1259  157.1674 C.ar    1  UNL1       -0.0006
     12 C         143.6953  138.7864  156.2837 C.ar    1  UNL1        0.0001
     13 C         143.7358  137.4673  155.5708 C.ar    1  UNL1        0.0045
     14 N         143.2033  133.9577  155.7221 N.am    1  UNL1       -0.2761
     15 C         142.6532  135.1686  155.0284 C.2     1  UNL1        0.2490
     16 O         142.1437  135.0604  153.6218 O.2     1  UNL1       -0.2699
     17 C         142.0790  131.6983  155.1047 C.3     1  UNL1        0.0233
     18 C         143.2438  132.6386  155.0091 C.3     1  UNL1        0.0938
     19 C         143.7128  134.0659  157.1288 C.3     1  UNL1        0.0938
     20 C         144.5384  132.9590  157.7146 C.3     1  UNL1        0.0233
     21 C         141.8332  141.6274  157.2333 C.ar    1  UNL1       -0.0005
     22 C         140.3592  141.8501  157.4006 C.ar    1  UNL1        0.0013
     23 C         139.7012  143.0325  156.7535 C.ar    1  UNL1        0.0147
     24 C         140.5170  143.9923  155.9391 C.ar    1  UNL1        0.0503
     25 C         141.9909  143.7696  155.7717 C.ar    1  UNL1        0.0147
     26 C         142.6490  142.5871  156.4188 C.ar    1  UNL1        0.0013
     27 N         139.8589  145.1748  155.2919 N.am    1  UNL1       -0.2839
     28 C         139.5996  146.4184  156.0895 C.2     1  UNL1        0.2266
     29 C         138.9415  147.6007  155.4424 C.3     1  UNL1        0.0949
     30 O         139.9983  146.4796  157.5342 O.2     1  UNL1       -0.2748
     31 H         139.5971  145.1346  154.3437 H       1  UNL1        0.1549
     32 C         144.9615  140.9916  163.3209 C.3     1  UNL1        0.0992
     33 C         144.1909  140.5775  164.5395 C.ar    1  UNL1       -0.0060
     34 C         143.4938  141.6115  165.3732 C.ar    1  UNL1       -0.0006
     35 C         142.7233  141.1975  166.5917 C.ar    1  UNL1        0.0294
     36 C         142.6499  139.7495  166.9766 C.ar    1  UNL1        0.1401
     37 F         141.8793  139.3355  168.1951 F       1  UNL1       -0.2042
     38 C         143.3470  138.7157  166.1429 C.ar    1  UNL1        0.0294
     39 C         144.1175  139.1297  164.9244 C.ar    1  UNL1       -0.0006
@<TRIPOS>BOND
     1    17    18    1
     2    18    14    1
     3    14    19    1
     4    19    20    1
     5    14    15   am
     6    15    16    2
     7    15     8    1
     8     8     9   ar
     9     9    10   ar
    10    10    11   ar
    11    11     1    1
    12     1     2    2
    13     2     3    1
    14     3     4    1
    15     4     5    1
    16     5    32    1
    17    32    33    1
    18    33    34   ar
    19    34    35   ar
    20    35    36   ar
    21    36    37    1
    22    36    38   ar
    23    38    39   ar
    24     5     6    1
    25     6     7    1
    26     1    21    1
    27    21    22   ar
    28    22    23   ar
    29    23    24   ar
    30    24    27    1
    31    27    28   am
    32    28    29    1
    33    28    30    2
    34    24    25   ar
    35    25    26   ar
    36    11    12   ar
    37    12    13   ar
    38    13     8   ar
    39     7     2    1
    40    26    21   ar
    41    39    33   ar
    42    27    31    1
@<TRIPOS>MOLECULE
*****
 39 42 0 0 0
SMALL
GASTEIGER

@<TRIPOS>ATOM
      1 C         142.5507  137.8112  157.1200 C.2     1  UNL1       -0.0078
      2 C         143.3487  138.9049  156.4744 C.2     1  UNL1       -0.0414
      3 C         144.1316  138.6253  155.2259 C.3     1  UNL1        0.0394
      4 C         144.9297  139.7192  154.5803 C.3     1  UNL1        0.0767
      5 N         144.9448  141.0925  155.1833 N.3     1  UNL1       -0.2683
      6 C         144.1619  141.3721  156.4319 C.3     1  UNL1        0.0767
      7 C         143.3638  140.2784  157.0774 C.3     1  UNL1        0.0394
      8 C         140.2018  138.6499  160.8656 C.ar    1  UNL1        0.0536
      9 C         139.5401  138.7629  159.5242 C.ar    1  UNL1        0.0045
     10 C         140.3230  138.4833  158.2757 C.ar    1  UNL1        0.0001
     11 C         141.7677  138.0907  158.3685 C.ar    1  UNL1       -0.0006
     12 C         142.4295  137.9777  159.7098 C.ar    1  UNL1        0.0001
     13 C         141.6465  138.2573  160.9584 C.ar    1  UNL1        0.0045
     14 N         139.3596  140.3230  162.6659 N.am    1  UNL1       -0.2761
     15 C         139.4189  138.9295  162.1141 C.2     1  UNL1        0.2490
     16 O         138.6952  137.8156  162.8108 O.2     1  UNL1       -0.2699
     17 C         137.8132  141.8868  164.0492 C.3     1  UNL1        0.0233
     18 C         138.5766  140.6026  163.9144 C.3     1  UNL1        0.0938
     19 C         140.0833  141.4370  161.9692 C.3     1  UNL1        0.0938
     20 C         141.3562  141.9811  162.5467 C.3     1  UNL1        0.0233
     21 C         142.5356  136.4378  156.5170 C.ar    1  UNL1       -0.0005
     22 C         143.7174  135.5302  156.6889 C.ar    1  UNL1        0.0013
     23 C         143.7023  134.1568  156.0859 C.ar    1  UNL1        0.0147
     24 C         142.5054  133.6910  155.3110 C.ar    1  UNL1        0.0503
     25 C         141.3236  134.5986  155.1391 C.ar    1  UNL1        0.0147
     26 C         141.3387  135.9720  155.7421 C.ar    1  UNL1        0.0013
     27 N         142.4904  132.3176  154.7080 N.am    1  UNL1       -0.2839
     28 C         142.5224  131.1086  155.5952 C.2     1  UNL1        0.2266
     29 C         142.5073  129.7352  154.9922 C.3     1  UNL1        0.0949
     30 O         142.5694  131.2729  157.0854 O.2     1  UNL1       -0.2748
     31 H         142.4595  132.2097  153.7299 H       1  UNL1        0.1549
     32 C         145.7429  142.1864  154.5378 C.3     1  UNL1        0.0992
     33 C         147.2390  142.0925  154.4857 C.ar    1  UNL1       -0.0060
     34 C         147.9509  142.1857  153.1686 C.ar    1  UNL1       -0.0006
     35 C         149.4471  142.0918  153.1165 C.ar    1  UNL1        0.0294
     36 C         150.2313  141.9048  154.3814 C.ar    1  UNL1        0.1401
     37 F         151.7275  141.8109  154.3293 F       1  UNL1       -0.2042
     38 C         149.5194  141.8116  155.6984 C.ar    1  UNL1        0.0294
     39 C         148.0233  141.9055  155.7505 C.ar    1  UNL1       -0.0006
@<TRIPOS>BOND
     1    17    18    1
     2    18    14    1
     3    14    19    1
     4    19    20    1
     5    14    15   am
     6    15    16    2
     7    15     8    1
     8     8     9   ar
     9     9    10   ar
    10    10    11   ar
    11    11     1    1
    12     1     2    2
    13     2     3    1
    14     3     4    1
    15     4     5    1
    16     5    32    1
    17    32    33    1
    18    33    34   ar
    19    34    35   ar
    20    35    36   ar
    21    36    37    1
    22    36    38   ar
    23    38    39   ar
    24     5     6    1
    25     6     7    1
    26     1    21    1
    27    21    22   ar
    28    22    23   ar
    29    23    24   ar
    30    24    27    1
    31    27    28   am
    32    28    29    1
    33    28    30    2
    34    24    25   ar
    35    25    26   ar
    36    11    12   ar
    37    12    13   ar
    38    13     8   ar
    39     7     2    1
    40    26    21   ar
    41    39    33   ar
    42    27    31    1
@<TRIPOS>MOLECULE
*****
 39 42 0 0 0
SMALL
GASTEIGER

@<TRIPOS>ATOM
      1 C         141.8492  140.9406  159.2625 C.2     1  UNL1       -0.0078
      2 C         142.1802  140.7758  160.7162 C.2     1  UNL1       -0.0414
      3 C         142.2105  141.9734  161.6189 C.3     1  UNL1        0.0394
      4 C         142.5415  141.8086  163.0727 C.3     1  UNL1        0.0767
      5 N         142.8423  140.4463  163.6236 N.3     1  UNL1       -0.2683
      6 C         142.8120  139.2487  162.7209 C.3     1  UNL1        0.0767
      7 C         142.4810  139.4134  161.2672 C.3     1  UNL1        0.0394
      8 C         141.7583  137.3479  156.5543 C.ar    1  UNL1        0.0536
      9 C         140.5483  137.7070  157.3647 C.ar    1  UNL1        0.0045
     10 C         140.5785  138.9046  158.2674 C.ar    1  UNL1        0.0001
     11 C         141.8189  139.7430  158.3598 C.ar    1  UNL1       -0.0006
     12 C         143.0290  139.3838  157.5495 C.ar    1  UNL1        0.0001
     13 C         142.9987  138.1863  156.6467 C.ar    1  UNL1        0.0045
     14 N         142.4498  134.8958  156.0454 N.am    1  UNL1       -0.2761
     15 C         141.7280  136.1503  155.6516 C.2     1  UNL1        0.2490
     16 O         140.9760  136.2073  154.3551 O.2     1  UNL1       -0.2699
     17 C         141.2837  132.7223  155.2293 C.3     1  UNL1        0.0233
     18 C         142.4196  133.6982  155.1427 C.3     1  UNL1        0.0938
     19 C         143.2020  134.8388  157.3420 C.3     1  UNL1        0.0938
     20 C         144.0053  133.6208  157.6902 C.3     1  UNL1        0.0233
     21 C         141.5484  142.3029  158.7116 C.ar    1  UNL1       -0.0005
     22 C         140.1337  142.7998  158.6704 C.ar    1  UNL1        0.0013
     23 C         139.8329  144.1621  158.1195 C.ar    1  UNL1        0.0147
     24 C         140.9469  145.0276  157.6096 C.ar    1  UNL1        0.0503
     25 C         142.3616  144.5308  157.6507 C.ar    1  UNL1        0.0147
     26 C         142.6624  143.1684  158.2017 C.ar    1  UNL1        0.0013
     27 N         140.6461  146.3900  157.0587 N.am    1  UNL1       -0.2839
     28 C         140.0119  146.5289  155.7065 C.2     1  UNL1        0.2266
     29 C         139.7111  147.8912  155.1556 C.3     1  UNL1        0.0949
     30 O         139.6784  145.3055  154.9052 O.2     1  UNL1       -0.2748
     31 H         140.8649  147.1930  157.5846 H       1  UNL1        0.1549
     32 C         143.1733  140.2815  165.0774 C.3     1  UNL1        0.0992
     33 C         142.0724  140.2066  166.0935 C.ar    1  UNL1       -0.0060
     34 C         140.6398  140.2110  165.6488 C.ar    1  UNL1       -0.0006
     35 C         139.5389  140.1362  166.6648 C.ar    1  UNL1        0.0294
     36 C         139.8706  140.0569  168.1256 C.ar    1  UNL1        0.1401
     37 F         138.7697  139.9821  169.1417 F       1  UNL1       -0.2042
     38 C         141.3031  140.0525  168.5702 C.ar    1  UNL1        0.0294
     39 C         142.4040  140.1274  167.5542 C.ar    1  UNL1       -0.0006
@<TRIPOS>BOND
     1    17    18    1
     2    18    14    1
     3    14    19    1
     4    19    20    1
     5    14    15   am
     6    15    16    2
     7    15     8    1
     8     8     9   ar
     9     9    10   ar
    10    10    11   ar
    11    11     1    1
    12     1     2    2
    13     2     3    1
    14     3     4    1
    15     4     5    1
    16     5    32    1
    17    32    33    1
    18    33    34   ar
    19    34    35   ar
    20    35    36   ar
    21    36    37    1
    22    36    38   ar
    23    38    39   ar
    24     5     6    1
    25     6     7    1
    26     1    21    1
    27    21    22   ar
    28    22    23   ar
    29    23    24   ar
    30    24    27    1
    31    27    28   am
    32    28    29    1
    33    28    30    2
    34    24    25   ar
    35    25    26   ar
    36    11    12   ar
    37    12    13   ar
    38    13     8   ar
    39     7     2    1
    40    26    21   ar
    41    39    33   ar
    42    27    31    1
@<TRIPOS>MOLECULE
*****
 39 42 0 0 0
SMALL
GASTEIGER

@<TRIPOS>ATOM
      1 C         142.5543  140.6883  157.0233 C.2     1  UNL1       -0.0078
      2 C         142.2264  139.3011  156.5564 C.2     1  UNL1       -0.0414
      3 C         143.0792  138.6389  155.5152 C.3     1  UNL1        0.0394
      4 C         142.7513  137.2516  155.0484 C.3     1  UNL1        0.0767
      5 N         141.5705  136.5265  155.6228 N.3     1  UNL1       -0.2683
      6 C         140.7177  137.1887  156.6640 C.3     1  UNL1        0.0767
      7 C         141.0456  138.5759  157.1309 C.3     1  UNL1        0.0394
      8 C         139.9957  142.6748  160.1470 C.ar    1  UNL1        0.0536
      9 C         139.8686  143.0760  158.7073 C.ar    1  UNL1        0.0045
     10 C         140.7214  142.4138  157.6661 C.ar    1  UNL1        0.0001
     11 C         141.7014  141.3505  158.0645 C.ar    1  UNL1       -0.0006
     12 C         141.8286  140.9493  159.5042 C.ar    1  UNL1        0.0001
     13 C         140.9757  141.6114  160.5455 C.ar    1  UNL1        0.0045
     14 N         139.6929  144.4755  161.9952 N.am    1  UNL1       -0.2761
     15 C         139.1429  143.3369  161.1883 C.2     1  UNL1        0.2490
     16 O         137.7400  142.8605  161.4226 O.2     1  UNL1       -0.2699
     17 C         138.9753  144.7444  164.4777 C.3     1  UNL1        0.0233
     18 C         138.8400  145.1376  163.0364 C.3     1  UNL1        0.0938
     19 C         141.0958  144.9519  161.7609 C.3     1  UNL1        0.0938
     20 C         142.2084  144.4720  162.6450 C.3     1  UNL1        0.0233
     21 C         143.7350  141.4134  156.4489 C.ar    1  UNL1       -0.0005
     22 C         145.0704  141.3274  157.1267 C.ar    1  UNL1        0.0013
     23 C         146.2512  142.0525  156.5523 C.ar    1  UNL1        0.0147
     24 C         146.0966  142.8636  155.3000 C.ar    1  UNL1        0.0503
     25 C         144.7614  142.9496  154.6221 C.ar    1  UNL1        0.0147
     26 C         143.5805  142.2245  155.1966 C.ar    1  UNL1        0.0013
     27 N         147.2775  143.5888  154.7256 N.am    1  UNL1       -0.2839
     28 C         148.1007  142.9466  153.6486 C.2     1  UNL1        0.2266
     29 C         149.2815  143.6717  153.0743 C.3     1  UNL1        0.0949
     30 O         147.7431  141.5793  153.1460 O.2     1  UNL1       -0.2748
     31 H         147.5122  144.4862  155.0555 H       1  UNL1        0.1549
     32 C         141.2425  135.1392  155.1560 C.3     1  UNL1        0.0992
     33 C         142.2473  134.0369  155.3159 C.ar    1  UNL1       -0.0060
     34 C         143.1239  133.9919  156.5323 C.ar    1  UNL1       -0.0006
     35 C         144.1286  132.8896  156.6923 C.ar    1  UNL1        0.0294
     36 C         144.2567  131.8324  155.6359 C.ar    1  UNL1        0.1401
     37 F         145.2614  130.7302  155.7958 F       1  UNL1       -0.2042
     38 C         143.3801  131.8775  154.4196 C.ar    1  UNL1        0.0294
     39 C         142.3753  132.9797  154.2596 C.ar    1  UNL1       -0.0006
@<TRIPOS>BOND
     1    17    18    1
     2    18    14    1
     3    14    19    1
     4    19    20    1
     5    14    15   am
     6    15    16    2
     7    15     8    1
     8     8     9   ar
     9     9    10   ar
    10    10    11   ar
    11    11     1    1
    12     1     2    2
    13     2     3    1
    14     3     4    1
    15     4     5    1
    16     5    32    1
    17    32    33    1
    18    33    34   ar
    19    34    35   ar
    20    35    36   ar
    21    36    37    1
    22    36    38   ar
    23    38    39   ar
    24     5     6    1
    25     6     7    1
    26     1    21    1
    27    21    22   ar
    28    22    23   ar
    29    23    24   ar
    30    24    27    1
    31    27    28   am
    32    28    29    1
    33    28    30    2
    34    24    25   ar
    35    25    26   ar
    36    11    12   ar
    37    12    13   ar
    38    13     8   ar
    39     7     2    1
    40    26    21   ar
    41    39    33   ar
    42    27    31    1
@<TRIPOS>MOLECULE
*****
 39 42 0 0 0
SMALL
GASTEIGER

@<TRIPOS>ATOM
      1 C         140.4001  139.7804  159.0774 C.2     1  UNL1       -0.0078
      2 C         139.9783  139.4844  160.4860 C.2     1  UNL1       -0.0414
      3 C         140.0270  138.0773  161.0035 C.3     1  UNL1        0.0394
      4 C         139.6052  137.7813  162.4123 C.3     1  UNL1        0.0767
      5 N         139.1347  138.8923  163.3034 N.3     1  UNL1       -0.2683
      6 C         139.0860  140.2994  162.7859 C.3     1  UNL1        0.0767
      7 C         139.5078  140.5954  161.3773 C.3     1  UNL1        0.0394
      8 C         140.2540  144.0016  157.5249 C.ar    1  UNL1        0.0536
      9 C         141.5158  143.4715  158.1387 C.ar    1  UNL1        0.0045
     10 C         141.5645  142.0645  158.6562 C.ar    1  UNL1        0.0001
     11 C         140.3514  141.1875  158.5599 C.ar    1  UNL1       -0.0006
     12 C         139.0896  141.7176  157.9461 C.ar    1  UNL1        0.0001
     13 C         139.0409  143.1247  157.4286 C.ar    1  UNL1        0.0045
     14 N         140.5131  145.6889  155.5663 N.am    1  UNL1       -0.2761
     15 C         140.2053  145.4087  157.0074 C.2     1  UNL1        0.2490
     16 O         139.8488  146.5356  157.9310 O.2     1  UNL1       -0.2699
     17 C         139.1428  147.7409  154.7528 C.3     1  UNL1        0.0233
     18 C         140.4644  147.0960  155.0488 C.3     1  UNL1        0.0938
     19 C         140.8696  144.5620  154.6427 C.3     1  UNL1        0.0938
     20 C         142.3096  144.2423  154.3705 C.3     1  UNL1        0.0233
     21 C         140.8707  138.6694  158.1862 C.ar    1  UNL1       -0.0005
     22 C         142.3065  138.2368  158.2213 C.ar    1  UNL1        0.0013
     23 C         142.7771  137.1258  157.3301 C.ar    1  UNL1        0.0147
     24 C         141.8118  136.4474  156.4038 C.ar    1  UNL1        0.0503
     25 C         140.3760  136.8800  156.3687 C.ar    1  UNL1        0.0147
     26 C         139.9054  137.9911  157.2599 C.ar    1  UNL1        0.0013
     27 N         142.2824  135.3363  155.5126 N.am    1  UNL1       -0.2839
     28 C         142.8073  134.0654  156.1119 C.2     1  UNL1        0.2266
     29 C         143.2779  132.9544  155.2207 C.3     1  UNL1        0.0949
     30 O         142.8617  133.9055  157.6024 O.2     1  UNL1       -0.2748
     31 H         142.2467  135.4413  154.5344 H       1  UNL1        0.1549
     32 C         138.7128  138.5963  164.7122 C.3     1  UNL1        0.0992
     33 C         139.5373  139.0940  165.8622 C.ar    1  UNL1       -0.0060
     34 C         138.8680  139.5260  167.1333 C.ar    1  UNL1       -0.0006
     35 C         139.6924  140.0237  168.2833 C.ar    1  UNL1        0.0294
     36 C         141.1861  140.0894  168.1623 C.ar    1  UNL1        0.1401
     37 F         142.0106  140.5871  169.3123 F       1  UNL1       -0.2042
     38 C         141.8553  139.6574  166.8913 C.ar    1  UNL1        0.0294
     39 C         141.0309  139.1597  165.7413 C.ar    1  UNL1       -0.0006
@<TRIPOS>BOND
     1    17    18    1
     2    18    14    1
     3    14    19    1
     4    19    20    1
     5    14    15   am
     6    15    16    2
     7    15     8    1
     8     8     9   ar
     9     9    10   ar
    10    10    11   ar
    11    11     1    1
    12     1     2    2
    13     2     3    1
    14     3     4    1
    15     4     5    1
    16     5    32    1
    17    32    33    1
    18    33    34   ar
    19    34    35   ar
    20    35    36   ar
    21    36    37    1
    22    36    38   ar
    23    38    39   ar
    24     5     6    1
    25     6     7    1
    26     1    21    1
    27    21    22   ar
    28    22    23   ar
    29    23    24   ar
    30    24    27    1
    31    27    28   am
    32    28    29    1
    33    28    30    2
    34    24    25   ar
    35    25    26   ar
    36    11    12   ar
    37    12    13   ar
    38    13     8   ar
    39     7     2    1
    40    26    21   ar
    41    39    33   ar
    42    27    31    1
