@<TRIPOS>MOLECULE
*****
 40 42 0 0 0
SMALL
GASTEIGER

@<TRIPOS>ATOM
      1 C         138.9683  142.5264  161.8578 C.2     1  UNL1        0.2485
      2 O         137.9675  143.6432  161.8294 O.2     1  UNL1       -0.2726
      3 N         139.9756  142.3938  160.7543 N.am    1  UNL1       -0.2823
      4 H         140.6326  141.6607  160.7729 H       1  UNL1        0.1549
      5 C         140.0687  141.7764  167.3225 C.ar    1  UNL1        0.1055
      6 C         140.2360  143.0400  166.5317 C.ar    1  UNL1        0.0181
      7 C         139.8917  143.0623  165.0719 C.ar    1  UNL1       -0.0011
      8 C         139.3802  141.8210  164.4030 C.ar    1  UNL1        0.0022
      9 C         139.2129  140.5575  165.1938 C.ar    1  UNL1       -0.0030
     10 C         139.5572  140.5352  166.6536 C.ar    1  UNL1        0.0155
     11 C         138.6912  139.4976  164.2693 C.3     1  UNL1        0.1206
     12 N         138.5361  140.1062  162.9071 N.am    1  UNL1       -0.2655
     13 C         138.0420  139.4024  161.6780 C.2     1  UNL1        0.2269
     14 C         137.6501  137.9562  161.7483 C.3     1  UNL1        0.0949
     15 O         137.9398  140.1448  160.3786 O.2     1  UNL1       -0.2748
     16 C         138.9619  141.5421  162.9897 C.3     1  UNL1        0.1750
     17 S         140.4130  141.7541  168.7823 S.O2    1  UNL1        0.0112
     18 O         140.1834  140.2721  168.8138 O.2     1  UNL1       -0.1685
     19 O         140.6426  143.2361  168.7508 O.2     1  UNL1       -0.1685
     20 C         140.7572  141.7318  170.2421 C.3     1  UNL1        0.1878
     21 C         142.0552  141.1336  170.6975 C.3     1  UNL1        0.1680
     22 C         144.1186  142.4823  169.8769 C.3     1  UNL1        0.1742
     23 O         143.2756  141.2423  169.8323 O.3     1  UNL1       -0.3492
     24 C         139.9820  143.3780  159.6224 C.ar    1  UNL1        0.0503
     25 C         140.6693  144.7016  159.7833 C.ar    1  UNL1        0.0144
     26 C         140.6757  145.6859  158.6514 C.ar    1  UNL1       -0.0002
     27 C         139.9949  145.3466  157.3586 C.ar    1  UNL1        0.0182
     28 C         139.3077  144.0231  157.1977 C.ar    1  UNL1       -0.0002
     29 C         139.3012  143.0388  158.3296 C.ar    1  UNL1        0.0144
     30 C         140.0013  146.3309  156.2268 C.3     1  UNL1        0.2827
     31 O         139.3697  147.3593  157.1175 O.3     1  UNL1       -0.3692
     32 H         139.2296  146.9809  157.9996 H       1  UNL1        0.2112
     33 C         140.0077  147.3152  155.0949 C.3     1  UNL1        0.4311
     34 F         140.0141  148.2994  153.9630 F       1  UNL1       -0.1669
     35 F         138.5079  147.3030  155.0758 F       1  UNL1       -0.1669
     36 F         140.8872  147.3931  155.0246 F       1  UNL1       -0.1669
     37 C         140.6329  145.3025  155.3360 C.3     1  UNL1        0.4311
     38 F         141.2645  144.2740  154.4453 F       1  UNL1       -0.1669
     39 F         139.9220  145.1452  154.8316 F       1  UNL1       -0.1669
     40 F         142.0379  145.1913  155.8494 F       1  UNL1       -0.1669
@<TRIPOS>BOND
     1    22    23    1
     2    23    21    1
     3    21    20    1
     4    20    17    1
     5    17    18    2
     6    17    19    2
     7    17     5    1
     8     5     6   ar
     9     6     7   ar
    10     7     8   ar
    11     8     9   ar
    12     9    10   ar
    13     9    11    1
    14    11    12    1
    15    12    13   am
    16    13    14    1
    17    13    15    2
    18    12    16    1
    19    16     1    1
    20     1     2    2
    21     1     3   am
    22     3    24    1
    23    24    25   ar
    24    25    26   ar
    25    26    27   ar
    26    27    30    1
    27    30    31    1
    28    30    33    1
    29    33    34    1
    30    33    35    1
    31    33    36    1
    32    30    37    1
    33    37    38    1
    34    37    39    1
    35    37    40    1
    36    27    28   ar
    37    28    29   ar
    38    10     5   ar
    39    29    24   ar
    40    16     8    1
    41     3     4    1
    42    31    32    1
@<TRIPOS>MOLECULE
*****
 40 42 0 0 0
SMALL
GASTEIGER

@<TRIPOS>ATOM
      1 C         141.9350  141.3555  162.0736 C.2     1  UNL1        0.2485
      2 O         143.2274  141.3328  162.8345 O.2     1  UNL1       -0.2726
      3 N         140.6295  141.3313  162.8119 N.am    1  UNL1       -0.2823
      4 H         139.7812  141.3462  162.3126 H       1  UNL1        0.1549
      5 C         142.6540  138.3523  157.3725 C.ar    1  UNL1        0.1055
      6 C         142.7394  137.8549  158.7850 C.ar    1  UNL1        0.0181
      7 C         142.5181  138.8008  159.9279 C.ar    1  UNL1       -0.0011
      8 C         142.2115  140.2441  159.6584 C.ar    1  UNL1        0.0022
      9 C         142.1261  140.7415  158.2459 C.ar    1  UNL1       -0.0030
     10 C         142.3473  139.7956  157.1029 C.ar    1  UNL1        0.0155
     11 C         141.8098  142.2072  158.2888 C.3     1  UNL1        0.1206
     12 N         141.6997  142.6156  159.7280 N.am    1  UNL1       -0.2655
     13 C         141.3949  143.9951  160.2322 C.2     1  UNL1        0.2269
     14 C         141.1686  145.1156  159.2610 C.3     1  UNL1        0.0949
     15 O         141.3165  144.2540  161.7076 O.2     1  UNL1       -0.2748
     16 C         141.9480  141.4023  160.5744 C.3     1  UNL1        0.1750
     17 S         142.8752  137.4064  156.2296 S.O2    1  UNL1        0.0112
     18 O         144.2455  137.9797  156.0203 O.2     1  UNL1       -0.1685
     19 O         141.5050  136.8330  156.4388 O.2     1  UNL1       -0.1685
     20 C         143.0965  136.4604  155.0866 C.3     1  UNL1        0.1878
     21 C         143.2992  134.9981  155.3518 C.3     1  UNL1        0.1680
     22 C         143.4402  133.7064  157.6017 C.3     1  UNL1        0.1742
     23 O         144.0882  134.5551  156.5482 O.3     1  UNL1       -0.3492
     24 C         140.6166  141.2845  164.3111 C.ar    1  UNL1        0.0503
     25 C         140.7913  139.9753  165.0222 C.ar    1  UNL1        0.0144
     26 C         140.7783  139.9285  166.5214 C.ar    1  UNL1       -0.0002
     27 C         140.5907  141.1908  167.3096 C.ar    1  UNL1        0.0182
     28 C         140.4160  142.4999  166.5986 C.ar    1  UNL1       -0.0002
     29 C         140.4289  142.5468  165.0994 C.ar    1  UNL1        0.0144
     30 C         140.5777  141.1439  168.8088 C.3     1  UNL1        0.2827
     31 O         139.3227  140.3231  168.7723 O.3     1  UNL1       -0.3692
     32 H         139.0601  140.1747  167.8504 H       1  UNL1        0.2112
     33 C         140.5647  141.0971  170.3080 C.3     1  UNL1        0.4311
     34 F         140.5518  141.0502  171.8072 F       1  UNL1       -0.1669
     35 F         139.3217  141.9365  170.3235 F       1  UNL1       -0.1669
     36 F         141.2923  140.6017  170.4068 F       1  UNL1       -0.1669
     37 C         141.8326  141.9647  168.8453 C.3     1  UNL1        0.4311
     38 F         143.0876  142.7855  168.8818 F       1  UNL1       -0.1669
     39 F         142.3774  141.3433  168.5265 F       1  UNL1       -0.1669
     40 F         141.3840  143.2899  169.3863 F       1  UNL1       -0.1669
@<TRIPOS>BOND
     1    22    23    1
     2    23    21    1
     3    21    20    1
     4    20    17    1
     5    17    18    2
     6    17    19    2
     7    17     5    1
     8     5     6   ar
     9     6     7   ar
    10     7     8   ar
    11     8     9   ar
    12     9    10   ar
    13     9    11    1
    14    11    12    1
    15    12    13   am
    16    13    14    1
    17    13    15    2
    18    12    16    1
    19    16     1    1
    20     1     2    2
    21     1     3   am
    22     3    24    1
    23    24    25   ar
    24    25    26   ar
    25    26    27   ar
    26    27    30    1
    27    30    31    1
    28    30    33    1
    29    33    34    1
    30    33    35    1
    31    33    36    1
    32    30    37    1
    33    37    38    1
    34    37    39    1
    35    37    40    1
    36    27    28   ar
    37    28    29   ar
    38    10     5   ar
    39    29    24   ar
    40    16     8    1
    41     3     4    1
    42    31    32    1
@<TRIPOS>MOLECULE
*****
 40 42 0 0 0
SMALL
GASTEIGER

@<TRIPOS>ATOM
      1 C         143.1959  139.0778  157.5712 C.2     1  UNL1        0.2485
      2 O         143.2476  138.0372  158.6503 O.2     1  UNL1       -0.2726
      3 N         142.9327  138.6729  156.1511 N.am    1  UNL1       -0.2823
      4 H         142.8987  139.3559  155.4428 H       1  UNL1        0.1549
      5 C         141.2322  143.4593  160.5008 C.ar    1  UNL1        0.1055
      6 C         140.6550  142.0759  160.4472 C.ar    1  UNL1        0.0181
      7 C         141.3123  141.0209  159.6076 C.ar    1  UNL1       -0.0011
      8 C         142.5468  141.3494  158.8215 C.ar    1  UNL1        0.0022
      9 C         143.1240  142.7329  158.8750 C.ar    1  UNL1       -0.0030
     10 C         142.4667  143.7878  159.7147 C.ar    1  UNL1        0.0155
     11 C         144.3413  142.7616  157.9989 C.3     1  UNL1        0.1206
     12 N         144.5163  141.3958  157.4038 N.am    1  UNL1       -0.2655
     13 C         145.6086  140.9764  156.4652 C.2     1  UNL1        0.2269
     14 C         146.6546  141.9648  156.0422 C.3     1  UNL1        0.0949
     15 O         145.6549  139.5686  155.9495 O.2     1  UNL1       -0.2748
     16 C         143.4073  140.5231  157.9122 C.3     1  UNL1        0.1750
     17 S         140.5748  144.5142  161.3405 S.O2    1  UNL1        0.0112
     18 O         139.7011  144.8924  160.1813 O.2     1  UNL1       -0.1685
     19 O         141.4486  144.1361  162.4996 O.2     1  UNL1       -0.1685
     20 C         139.9175  145.5692  162.1801 C.3     1  UNL1        0.1878
     21 C         138.8598  145.1866  163.1725 C.3     1  UNL1        0.1680
     22 C         137.6278  142.9115  162.9359 C.3     1  UNL1        0.1742
     23 O         137.6648  144.3966  162.7280 O.3     1  UNL1       -0.3492
     24 C         142.7212  137.2276  155.8101 C.ar    1  UNL1        0.0503
     25 C         143.9008  136.3165  155.6410 C.ar    1  UNL1        0.0144
     26 C         143.6894  134.8712  155.3000 C.ar    1  UNL1       -0.0002
     27 C         142.2984  134.3368  155.1281 C.ar    1  UNL1        0.0182
     28 C         141.1188  135.2479  155.2972 C.ar    1  UNL1       -0.0002
     29 C         141.3303  136.6932  155.6382 C.ar    1  UNL1        0.0144
     30 C         142.0869  132.8915  154.7871 C.3     1  UNL1        0.2827
     31 O         141.4056  133.2920  153.5122 O.3     1  UNL1       -0.3692
     32 H         141.3877  134.2595  153.4453 H       1  UNL1        0.2112
     33 C         141.8755  131.4462  154.4462 C.3     1  UNL1        0.4311
     34 F         141.6641  130.0008  154.1052 F       1  UNL1       -0.1669
     35 F         142.8547  131.5694  153.3166 F       1  UNL1       -0.1669
     36 F         141.2863  131.2699  155.0837 F       1  UNL1       -0.1669
     37 C         142.7683  132.4911  156.0621 C.3     1  UNL1        0.4311
     38 F         143.4496  132.0906  157.3370 F       1  UNL1       -0.1669
     39 F         142.1214  132.7407  156.6132 F       1  UNL1       -0.1669
     40 F         144.0852  131.9332  155.6101 F       1  UNL1       -0.1669
@<TRIPOS>BOND
     1    22    23    1
     2    23    21    1
     3    21    20    1
     4    20    17    1
     5    17    18    2
     6    17    19    2
     7    17     5    1
     8     5     6   ar
     9     6     7   ar
    10     7     8   ar
    11     8     9   ar
    12     9    10   ar
    13     9    11    1
    14    11    12    1
    15    12    13   am
    16    13    14    1
    17    13    15    2
    18    12    16    1
    19    16     1    1
    20     1     2    2
    21     1     3   am
    22     3    24    1
    23    24    25   ar
    24    25    26   ar
    25    26    27   ar
    26    27    30    1
    27    30    31    1
    28    30    33    1
    29    33    34    1
    30    33    35    1
    31    33    36    1
    32    30    37    1
    33    37    38    1
    34    37    39    1
    35    37    40    1
    36    27    28   ar
    37    28    29   ar
    38    10     5   ar
    39    29    24   ar
    40    16     8    1
    41     3     4    1
    42    31    32    1
@<TRIPOS>MOLECULE
*****
 40 42 0 0 0
SMALL
GASTEIGER

@<TRIPOS>ATOM
      1 C         141.3492  140.4620  161.6552 C.2     1  UNL1        0.2485
      2 O         140.1996  139.5007  161.5912 O.2     1  UNL1       -0.2726
      3 N         142.3948  140.4533  160.5797 N.am    1  UNL1       -0.2823
      4 H         143.1494  141.0842  160.6216 H       1  UNL1        0.1549
      5 C         142.3690  141.0187  167.1585 C.ar    1  UNL1        0.1055
      6 C         142.3706  139.7472  166.3628 C.ar    1  UNL1        0.0181
      7 C         142.0752  139.7821  164.8926 C.ar    1  UNL1       -0.0011
      8 C         141.7781  141.0885  164.2181 C.ar    1  UNL1        0.0022
      9 C         141.7765  142.3600  165.0138 C.ar    1  UNL1       -0.0030
     10 C         142.0719  142.3251  166.4840 C.ar    1  UNL1        0.0155
     11 C         141.4506  143.4895  164.0820 C.3     1  UNL1        0.1206
     12 N         141.2509  142.9160  162.7105 N.am    1  UNL1       -0.2655
     13 C         140.9088  143.6904  161.4722 C.2     1  UNL1        0.2269
     14 C         140.7364  145.1788  161.5421 C.3     1  UNL1        0.0949
     15 O         140.7392  142.9764  160.1640 O.2     1  UNL1       -0.2748
     16 C         141.4533  141.4321  162.7946 C.3     1  UNL1        0.1750
     17 S         142.6644  140.9838  168.6287 S.O2    1  UNL1        0.0112
     18 O         143.1284  142.4090  168.5693 O.2     1  UNL1       -0.1685
     19 O         142.2004  139.5587  168.6881 O.2     1  UNL1       -0.1685
     20 C         142.9598  140.9490  170.0989 C.3     1  UNL1        0.1878
     21 C         141.8363  140.8467  171.0875 C.3     1  UNL1        0.1680
     22 C         140.0593  142.7216  170.8099 C.3     1  UNL1        0.1742
     23 O         141.1696  142.0902  171.5965 O.3     1  UNL1       -0.3492
     24 C         142.2907  139.4833  159.4403 C.ar    1  UNL1        0.0503
     25 C         142.8910  138.1142  159.5637 C.ar    1  UNL1        0.0144
     26 C         142.7869  137.1441  158.4243 C.ar    1  UNL1       -0.0002
     27 C         142.0825  137.5431  157.1616 C.ar    1  UNL1        0.0182
     28 C         141.4822  138.9122  157.0382 C.ar    1  UNL1       -0.0002
     29 C         141.5863  139.8822  158.1776 C.ar    1  UNL1        0.0144
     30 C         141.9784  136.5731  156.0222 C.3     1  UNL1        0.2827
     31 O         140.5236  136.3712  156.3270 O.3     1  UNL1       -0.3692
     32 H         140.2735  136.9191  157.0874 H       1  UNL1        0.2112
     33 C         141.8742  135.6031  154.8828 C.3     1  UNL1        0.4311
     34 F         141.7701  134.6330  153.7434 F       1  UNL1       -0.1669
     35 F         141.5313  134.5068  155.8475 F       1  UNL1       -0.1669
     36 F         142.0677  136.1758  154.2354 F       1  UNL1       -0.1669
     37 C         143.4331  136.7750  155.7174 C.3     1  UNL1        0.4311
     38 F         144.8879  136.9769  155.4126 F       1  UNL1       -0.1669
     39 F         143.3640  137.5999  155.4022 F       1  UNL1       -0.1669
     40 F         144.0730  135.4823  156.1291 F       1  UNL1       -0.1669
@<TRIPOS>BOND
     1    22    23    1
     2    23    21    1
     3    21    20    1
     4    20    17    1
     5    17    18    2
     6    17    19    2
     7    17     5    1
     8     5     6   ar
     9     6     7   ar
    10     7     8   ar
    11     8     9   ar
    12     9    10   ar
    13     9    11    1
    14    11    12    1
    15    12    13   am
    16    13    14    1
    17    13    15    2
    18    12    16    1
    19    16     1    1
    20     1     2    2
    21     1     3   am
    22     3    24    1
    23    24    25   ar
    24    25    26   ar
    25    26    27   ar
    26    27    30    1
    27    30    31    1
    28    30    33    1
    29    33    34    1
    30    33    35    1
    31    33    36    1
    32    30    37    1
    33    37    38    1
    34    37    39    1
    35    37    40    1
    36    27    28   ar
    37    28    29   ar
    38    10     5   ar
    39    29    24   ar
    40    16     8    1
    41     3     4    1
    42    31    32    1
@<TRIPOS>MOLECULE
*****
 40 42 0 0 0
SMALL
GASTEIGER

@<TRIPOS>ATOM
      1 C         141.3034  141.5126  161.9950 C.2     1  UNL1        0.2485
      2 O         139.9890  141.6998  162.6931 O.2     1  UNL1       -0.2726
      3 N         142.5445  141.2421  162.7929 N.am    1  UNL1       -0.2823
      4 H         143.4072  141.1193  162.3347 H       1  UNL1        0.1549
      5 C         140.6301  144.8589  157.5246 C.ar    1  UNL1        0.1055
      6 C         140.4311  145.2244  158.9656 C.ar    1  UNL1        0.0181
      7 C         140.6566  144.1995  160.0374 C.ar    1  UNL1       -0.0011
      8 C         141.0812  142.8091  159.6681 C.ar    1  UNL1        0.0022
      9 C         141.2803  142.4436  158.2270 C.ar    1  UNL1       -0.0030
     10 C         141.0547  143.4685  157.1553 C.ar    1  UNL1        0.0155
     11 C         141.6988  141.0044  158.1674 C.3     1  UNL1        0.1206
     12 N         141.7584  140.4804  159.5716 N.am    1  UNL1       -0.2655
     13 C         142.1338  139.0859  159.9772 C.2     1  UNL1        0.2269
     14 C         142.4939  138.0721  158.9320 C.3     1  UNL1        0.0949
     15 O         142.1491  138.7053  161.4280 O.2     1  UNL1       -0.2748
     16 C         141.3767  141.5958  160.4991 C.3     1  UNL1        0.1750
     17 S         140.4045  145.8838  156.4528 S.O2    1  UNL1        0.0112
     18 O         141.1087  145.0037  155.4630 O.2     1  UNL1       -0.1685
     19 O         139.7004  146.7639  157.4425 O.2     1  UNL1       -0.1685
     20 C         140.1790  146.9087  155.3810 C.3     1  UNL1        0.1878
     21 C         139.0016  147.8343  155.4642 C.3     1  UNL1        0.1680
     22 C         138.4690  150.3625  155.7376 C.3     1  UNL1        0.1742
     23 O         139.1225  149.2475  154.9761 O.3     1  UNL1       -0.3492
     24 C         142.4712  141.1589  164.2887 C.ar    1  UNL1        0.0503
     25 C         142.9926  142.2866  165.1291 C.ar    1  UNL1        0.0144
     26 C         142.9193  142.2034  166.6250 C.ar    1  UNL1       -0.0002
     27 C         142.3246  140.9924  167.2806 C.ar    1  UNL1        0.0182
     28 C         141.8031  139.8647  166.4402 C.ar    1  UNL1       -0.0002
     29 C         141.8764  139.9479  164.9443 C.ar    1  UNL1        0.0144
     30 C         142.2512  140.9092  168.7765 C.3     1  UNL1        0.2827
     31 O         143.0360  139.6313  168.7438 O.3     1  UNL1       -0.3692
     32 H         143.2499  139.4066  167.8247 H       1  UNL1        0.2112
     33 C         142.1779  140.8259  170.2723 C.3     1  UNL1        0.4311
     34 F         142.1046  140.7427  171.7682 F       1  UNL1       -0.1669
     35 F         143.6734  140.9113  170.3504 F       1  UNL1       -0.1669
     36 F         141.2961  140.7699  170.3343 F       1  UNL1       -0.1669
     37 C         141.4664  142.1871  168.8091 C.3     1  UNL1        0.4311
     38 F         140.6816  143.4649  168.8418 F       1  UNL1       -0.1669
     39 F         142.1038  142.6965  169.1538 F       1  UNL1       -0.1669
     40 F         140.1278  141.8053  168.2502 F       1  UNL1       -0.1669
@<TRIPOS>BOND
     1    22    23    1
     2    23    21    1
     3    21    20    1
     4    20    17    1
     5    17    18    2
     6    17    19    2
     7    17     5    1
     8     5     6   ar
     9     6     7   ar
    10     7     8   ar
    11     8     9   ar
    12     9    10   ar
    13     9    11    1
    14    11    12    1
    15    12    13   am
    16    13    14    1
    17    13    15    2
    18    12    16    1
    19    16     1    1
    20     1     2    2
    21     1     3   am
    22     3    24    1
    23    24    25   ar
    24    25    26   ar
    25    26    27   ar
    26    27    30    1
    27    30    31    1
    28    30    33    1
    29    33    34    1
    30    33    35    1
    31    33    36    1
    32    30    37    1
    33    37    38    1
    34    37    39    1
    35    37    40    1
    36    27    28   ar
    37    28    29   ar
    38    10     5   ar
    39    29    24   ar
    40    16     8    1
    41     3     4    1
    42    31    32    1
@<TRIPOS>MOLECULE
*****
 40 42 0 0 0
SMALL
GASTEIGER

@<TRIPOS>ATOM
      1 C         140.2492  139.8660  161.0292 C.2     1  UNL1        0.2485
      2 O         139.1997  138.8257  160.7717 O.2     1  UNL1       -0.2726
      3 N         141.4544  139.9515  160.1403 N.am    1  UNL1       -0.2823
      4 H         142.1433  140.6342  160.3093 H       1  UNL1        0.1549
      5 C         139.7041  140.3218  166.6088 C.ar    1  UNL1        0.1055
      6 C         139.8425  139.0571  165.8142 C.ar    1  UNL1        0.0181
      7 C         139.9790  139.1201  164.3218 C.ar    1  UNL1       -0.0011
      8 C         139.9770  140.4478  163.6239 C.ar    1  UNL1        0.0022
      9 C         139.8386  141.7125  164.4184 C.ar    1  UNL1       -0.0030
     10 C         139.7022  141.6495  165.9109 C.ar    1  UNL1        0.0155
     11 C         139.8697  142.8671  163.4613 C.3     1  UNL1        0.1206
     12 N         140.0273  142.3158  162.0752 N.am    1  UNL1       -0.2655
     13 C         140.1050  143.1188  160.8105 C.2     1  UNL1        0.2269
     14 C         140.0239  144.6156  160.8663 C.3     1  UNL1        0.0949
     15 O         140.2636  142.4250  159.4901 O.2     1  UNL1       -0.2748
     16 C         140.0936  140.8207  162.1757 C.3     1  UNL1        0.1750
     17 S         139.5677  140.2587  168.1012 S.O2    1  UNL1        0.0112
     18 O         140.6314  141.3068  168.2427 O.2     1  UNL1       -0.1685
     19 O         138.5040  139.2106  167.9597 O.2     1  UNL1       -0.1685
     20 C         139.4313  140.1957  169.5937 C.3     1  UNL1        0.1878
     21 C         140.5626  140.6455  170.4699 C.3     1  UNL1        0.1680
     22 C         139.6301  143.0270  170.9271 C.3     1  UNL1        0.1742
     23 O         140.3776  141.8129  171.3934 O.3     1  UNL1       -0.3492
     24 C         141.6100  138.9968  158.9939 C.ar    1  UNL1        0.0503
     25 C         142.6153  137.8864  159.0737 C.ar    1  UNL1        0.0144
     26 C         142.7709  136.9317  157.9273 C.ar    1  UNL1       -0.0002
     27 C         141.9213  137.0873  156.7010 C.ar    1  UNL1        0.0182
     28 C         140.9160  138.1977  156.6211 C.ar    1  UNL1       -0.0002
     29 C         140.7604  139.1524  157.7676 C.ar    1  UNL1        0.0144
     30 C         142.0769  136.1326  155.5546 C.3     1  UNL1        0.2827
     31 O         140.6412  135.7233  155.7006 O.3     1  UNL1       -0.3692
     32 H         140.2369  136.2171  156.4310 H       1  UNL1        0.2112
     33 C         142.2325  135.1779  154.4081 C.3     1  UNL1        0.4311
     34 F         142.3881  134.2232  153.2617 F       1  UNL1       -0.1669
     35 F         141.8915  134.0330  155.3153 F       1  UNL1       -0.1669
     36 F         142.4436  135.7802  153.7939 F       1  UNL1       -0.1669
     37 C         143.5125  136.5419  155.4086 C.3     1  UNL1        0.4311
     38 F         144.9482  136.9512  155.2626 F       1  UNL1       -0.1669
     39 F         143.3612  137.3658  155.1208 F       1  UNL1       -0.1669
     40 F         144.2816  135.3257  155.8322 F       1  UNL1       -0.1669
@<TRIPOS>BOND
     1    22    23    1
     2    23    21    1
     3    21    20    1
     4    20    17    1
     5    17    18    2
     6    17    19    2
     7    17     5    1
     8     5     6   ar
     9     6     7   ar
    10     7     8   ar
    11     8     9   ar
    12     9    10   ar
    13     9    11    1
    14    11    12    1
    15    12    13   am
    16    13    14    1
    17    13    15    2
    18    12    16    1
    19    16     1    1
    20     1     2    2
    21     1     3   am
    22     3    24    1
    23    24    25   ar
    24    25    26   ar
    25    26    27   ar
    26    27    30    1
    27    30    31    1
    28    30    33    1
    29    33    34    1
    30    33    35    1
    31    33    36    1
    32    30    37    1
    33    37    38    1
    34    37    39    1
    35    37    40    1
    36    27    28   ar
    37    28    29   ar
    38    10     5   ar
    39    29    24   ar
    40    16     8    1
    41     3     4    1
    42    31    32    1
@<TRIPOS>MOLECULE
*****
 40 42 0 0 0
SMALL
GASTEIGER

@<TRIPOS>ATOM
      1 C         142.5884  138.1700  157.3033 C.2     1  UNL1        0.2485
      2 O         141.4619  138.2484  158.2906 O.2     1  UNL1       -0.2726
      3 N         143.7365  139.1306  157.3977 N.am    1  UNL1       -0.2823
      4 H         144.4759  139.0792  156.7497 H       1  UNL1        0.1549
      5 C         143.5455  132.7633  156.0832 C.ar    1  UNL1        0.1055
      6 C         143.7134  133.4331  157.4149 C.ar    1  UNL1        0.0181
      7 C         143.4105  134.8947  157.5627 C.ar    1  UNL1       -0.0011
      8 C         142.9397  135.6866  156.3790 C.ar    1  UNL1        0.0022
      9 C         142.7719  135.0169  155.0474 C.ar    1  UNL1       -0.0030
     10 C         143.0748  133.5552  154.8995 C.ar    1  UNL1        0.0155
     11 C         142.2952  136.0473  154.0670 C.3     1  UNL1        0.1206
     12 N         142.1685  137.3539  154.7928 N.am    1  UNL1       -0.2655
     13 C         141.7218  138.6550  154.1947 C.2     1  UNL1        0.2269
     14 C         141.3531  138.7255  152.7424 C.3     1  UNL1        0.0949
     15 O         141.6438  139.8855  155.0489 O.2     1  UNL1       -0.2748
     16 C         142.5668  137.1310  156.2216 C.3     1  UNL1        0.1750
     17 S         143.8484  131.3017  155.9354 S.O2    1  UNL1        0.0112
     18 O         145.3048  131.5807  156.1614 O.2     1  UNL1       -0.1685
     19 O         142.3921  131.0228  155.7093 O.2     1  UNL1       -0.1685
     20 C         144.1514  129.8401  155.7875 C.3     1  UNL1        0.1878
     21 C         143.6402  128.8617  156.8031 C.3     1  UNL1        0.1680
     22 C         144.2750  128.6649  159.3148 C.3     1  UNL1        0.1742
     23 O         143.4512  129.2900  158.2282 O.3     1  UNL1       -0.3492
     24 C         143.7581  140.1696  158.4793 C.ar    1  UNL1        0.0503
     25 C         143.6502  139.7574  159.9175 C.ar    1  UNL1        0.0144
     26 C         143.6718  140.7964  160.9992 C.ar    1  UNL1       -0.0002
     27 C         143.8013  142.2477  160.6427 C.ar    1  UNL1        0.0182
     28 C         143.9093  142.6599  159.2045 C.ar    1  UNL1       -0.0002
     29 C         143.8877  141.6209  158.1229 C.ar    1  UNL1        0.0144
     30 C         143.8229  143.2867  161.7244 C.3     1  UNL1        0.2827
     31 O         142.7179  144.0291  161.0332 O.3     1  UNL1       -0.3692
     32 H         142.4665  143.5557  160.2248 H       1  UNL1        0.2112
     33 C         143.8445  144.3257  162.8060 C.3     1  UNL1        0.4311
     34 F         143.8661  145.3647  163.8877 F       1  UNL1       -0.1669
     35 F         142.5003  143.8592  163.2810 F       1  UNL1       -0.1669
     36 F         144.6339  144.6739  162.6055 F       1  UNL1       -0.1669
     37 C         144.9279  142.5442  162.4155 C.3     1  UNL1        0.4311
     38 F         146.0329  141.8017  163.1067 F       1  UNL1       -0.1669
     39 F         145.5389  142.6460  161.7824 F       1  UNL1       -0.1669
     40 F         144.3155  142.1075  163.7133 F       1  UNL1       -0.1669
@<TRIPOS>BOND
     1    22    23    1
     2    23    21    1
     3    21    20    1
     4    20    17    1
     5    17    18    2
     6    17    19    2
     7    17     5    1
     8     5     6   ar
     9     6     7   ar
    10     7     8   ar
    11     8     9   ar
    12     9    10   ar
    13     9    11    1
    14    11    12    1
    15    12    13   am
    16    13    14    1
    17    13    15    2
    18    12    16    1
    19    16     1    1
    20     1     2    2
    21     1     3   am
    22     3    24    1
    23    24    25   ar
    24    25    26   ar
    25    26    27   ar
    26    27    30    1
    27    30    31    1
    28    30    33    1
    29    33    34    1
    30    33    35    1
    31    33    36    1
    32    30    37    1
    33    37    38    1
    34    37    39    1
    35    37    40    1
    36    27    28   ar
    37    28    29   ar
    38    10     5   ar
    39    29    24   ar
    40    16     8    1
    41     3     4    1
    42    31    32    1
@<TRIPOS>MOLECULE
*****
 40 42 0 0 0
SMALL
GASTEIGER

@<TRIPOS>ATOM
      1 C         141.6399  139.0239  158.6548 C.2     1  UNL1        0.2485
      2 O         142.4044  138.1345  159.5898 O.2     1  UNL1       -0.2726
      3 N         140.4181  139.7472  159.1388 N.am    1  UNL1       -0.2823
      4 H         139.9163  140.3310  158.5251 H       1  UNL1        0.1549
      5 C         145.6124  141.1900  155.3137 C.ar    1  UNL1        0.1055
      6 C         145.5472  141.2702  156.8101 C.ar    1  UNL1        0.0181
      7 C         144.4074  140.6309  157.5465 C.ar    1  UNL1       -0.0011
      8 C         143.3329  139.9114  156.7865 C.ar    1  UNL1        0.0022
      9 C         143.3982  139.8312  155.2901 C.ar    1  UNL1       -0.0030
     10 C         144.5379  140.4705  154.5537 C.ar    1  UNL1        0.0155
     11 C         142.2025  139.0602  154.8146 C.3     1  UNL1        0.1206
     12 N         141.3983  138.6640  156.0172 N.am    1  UNL1       -0.2655
     13 C         140.1198  137.8795  156.0035 C.2     1  UNL1        0.2269
     14 C         139.5371  137.4177  154.7007 C.3     1  UNL1        0.0949
     15 O         139.4241  137.5567  157.2926 O.2     1  UNL1       -0.2748
     16 C         142.0969  139.1900  157.2358 C.3     1  UNL1        0.1750
     17 S         146.7522  141.8293  154.5773 S.O2    1  UNL1        0.0112
     18 O         146.4256  141.0123  153.3625 O.2     1  UNL1       -0.1685
     19 O         147.0788  142.6463  155.7921 O.2     1  UNL1       -0.1685
     20 C         147.8919  142.4686  153.8409 C.3     1  UNL1        0.1878
     21 C         148.7362  141.6504  152.9095 C.3     1  UNL1        0.1680
     22 C         150.7563  141.1754  154.4727 C.3     1  UNL1        0.1742
     23 O         150.2176  141.5575  153.1259 O.3     1  UNL1       -0.3492
     24 C         139.9611  139.5811  160.5578 C.ar    1  UNL1        0.0503
     25 C         140.4125  140.5506  161.6095 C.ar    1  UNL1        0.0144
     26 C         139.9554  140.3845  163.0285 C.ar    1  UNL1       -0.0002
     27 C         139.0469  139.2489  163.3958 C.ar    1  UNL1        0.0182
     28 C         138.5955  138.2793  162.3440 C.ar    1  UNL1       -0.0002
     29 C         139.0526  138.4455  160.9250 C.ar    1  UNL1        0.0144
     30 C         138.5899  139.0828  164.8147 C.3     1  UNL1        0.2827
     31 O         137.6675  140.2548  164.6548 O.3     1  UNL1       -0.3692
     32 H         137.7474  140.6087  163.7553 H       1  UNL1        0.2112
     33 C         138.1328  138.9166  166.2337 C.3     1  UNL1        0.4311
     34 F         137.6757  138.7505  167.6527 F       1  UNL1       -0.1669
     35 F         138.7867  140.2169  166.5966 F       1  UNL1       -0.1669
     36 F         137.7166  138.1426  166.1231 F       1  UNL1       -0.1669
     37 C         139.5122  137.9107  164.9746 C.3     1  UNL1        0.4311
     38 F         140.4346  136.7387  165.1345 F       1  UNL1       -0.1669
     39 F         138.9559  137.2930  164.6688 F       1  UNL1       -0.1669
     40 F         140.7663  138.5100  165.5386 F       1  UNL1       -0.1669
@<TRIPOS>BOND
     1    22    23    1
     2    23    21    1
     3    21    20    1
     4    20    17    1
     5    17    18    2
     6    17    19    2
     7    17     5    1
     8     5     6   ar
     9     6     7   ar
    10     7     8   ar
    11     8     9   ar
    12     9    10   ar
    13     9    11    1
    14    11    12    1
    15    12    13   am
    16    13    14    1
    17    13    15    2
    18    12    16    1
    19    16     1    1
    20     1     2    2
    21     1     3   am
    22     3    24    1
    23    24    25   ar
    24    25    26   ar
    25    26    27   ar
    26    27    30    1
    27    30    31    1
    28    30    33    1
    29    33    34    1
    30    33    35    1
    31    33    36    1
    32    30    37    1
    33    37    38    1
    34    37    39    1
    35    37    40    1
    36    27    28   ar
    37    28    29   ar
    38    10     5   ar
    39    29    24   ar
    40    16     8    1
    41     3     4    1
    42    31    32    1
@<TRIPOS>MOLECULE
*****
 40 42 0 0 0
SMALL
GASTEIGER

@<TRIPOS>ATOM
      1 C         139.6027  142.6045  162.8640 C.2     1  UNL1        0.2485
      2 O         139.1088  143.7705  163.6680 O.2     1  UNL1       -0.2726
      3 N         140.4228  141.5341  163.5211 N.am    1  UNL1       -0.2823
      4 H         140.7470  140.7688  162.9935 H       1  UNL1        0.1549
      5 C         140.2378  145.0300  157.8292 C.ar    1  UNL1        0.1055
      6 C         140.7835  145.5125  159.1404 C.ar    1  UNL1        0.0181
      7 C         140.5156  144.7360  160.3956 C.ar    1  UNL1       -0.0011
      8 C         139.7019  143.4772  160.3395 C.ar    1  UNL1        0.0022
      9 C         139.1561  142.9948  159.0283 C.ar    1  UNL1       -0.0030
     10 C         139.4240  143.7712  157.7731 C.ar    1  UNL1        0.0155
     11 C         138.3935  141.7281  159.2814 C.3     1  UNL1        0.1206
     12 N         138.4680  141.4278  160.7491 N.am    1  UNL1       -0.2655
     13 C         137.8434  140.2527  161.4415 C.2     1  UNL1        0.2269
     14 C         137.0585  139.2474  160.6520 C.3     1  UNL1        0.0949
     15 O         138.0039  140.0830  162.9232 O.2     1  UNL1       -0.2748
     16 C         139.2766  142.5088  161.4031 C.3     1  UNL1        0.1750
     17 S         140.5057  145.8064  156.5740 S.O2    1  UNL1        0.0112
     18 O         141.4157  144.7152  156.0933 O.2     1  UNL1       -0.1685
     19 O         139.5957  146.8977  157.0548 O.2     1  UNL1       -0.1685
     20 C         140.7736  146.5829  155.3189 C.3     1  UNL1        0.1878
     21 C         139.7311  147.5152  154.7768 C.3     1  UNL1        0.1680
     22 C         139.3363  150.0818  154.6952 C.3     1  UNL1        0.1742
     23 O         140.1256  148.8751  154.2818 O.3     1  UNL1       -0.3492
     24 C         140.7489  141.6299  164.9821 C.ar    1  UNL1        0.0503
     25 C         142.0781  142.1699  165.4201 C.ar    1  UNL1        0.0144
     26 C         142.4042  142.2656  166.8811 C.ar    1  UNL1       -0.0002
     27 C         141.4012  141.8213  167.9041 C.ar    1  UNL1        0.0182
     28 C         140.0721  141.2813  167.4662 C.ar    1  UNL1       -0.0002
     29 C         139.7460  141.1856  166.0052 C.ar    1  UNL1        0.0144
     30 C         141.7274  141.9171  169.3651 C.3     1  UNL1        0.2827
     31 O         142.6192  140.7171  169.2447 O.3     1  UNL1       -0.3692
     32 H         142.6126  140.4000  168.3280 H       1  UNL1        0.2112
     33 C         142.0535  142.0128  170.8261 C.3     1  UNL1        0.4311
     34 F         142.3796  142.1085  172.2871 F       1  UNL1       -0.1669
     35 F         143.2612  142.8412  170.5022 F       1  UNL1       -0.1669
     36 F         141.3690  141.5341  171.1211 F       1  UNL1       -0.1669
     37 C         140.8355  143.1171  169.4856 C.3     1  UNL1        0.4311
     38 F         139.9436  144.3171  169.6060 F       1  UNL1       -0.1669
     39 F         141.4247  143.7178  169.2089 F       1  UNL1       -0.1669
     40 F         139.5379  142.5561  169.9871 F       1  UNL1       -0.1669
@<TRIPOS>BOND
     1    22    23    1
     2    23    21    1
     3    21    20    1
     4    20    17    1
     5    17    18    2
     6    17    19    2
     7    17     5    1
     8     5     6   ar
     9     6     7   ar
    10     7     8   ar
    11     8     9   ar
    12     9    10   ar
    13     9    11    1
    14    11    12    1
    15    12    13   am
    16    13    14    1
    17    13    15    2
    18    12    16    1
    19    16     1    1
    20     1     2    2
    21     1     3   am
    22     3    24    1
    23    24    25   ar
    24    25    26   ar
    25    26    27   ar
    26    27    30    1
    27    30    31    1
    28    30    33    1
    29    33    34    1
    30    33    35    1
    31    33    36    1
    32    30    37    1
    33    37    38    1
    34    37    39    1
    35    37    40    1
    36    27    28   ar
    37    28    29   ar
    38    10     5   ar
    39    29    24   ar
    40    16     8    1
    41     3     4    1
    42    31    32    1
