@<TRIPOS>MOLECULE
*****
 24 26 0 0 0
SMALL
GASTEIGER

@<TRIPOS>ATOM
      1 P         141.2518  141.2898  164.2058 P.3     1  UNL1        0.2266
      2 O         140.0657  141.9733  163.5927 O.2     1  UNL1       -0.2903
      3 C         140.3599  140.1942  164.7099 C.ar    1  UNL1        0.0498
      4 C         139.3447  140.4842  165.7754 C.ar    1  UNL1        0.0046
      5 C         138.4528  139.3886  166.2796 C.ar    1  UNL1        0.0002
      6 C         138.5760  138.0031  165.7182 C.ar    1  UNL1        0.0000
      7 C         139.5911  137.7132  164.6527 C.ar    1  UNL1        0.0002
      8 C         140.4830  138.8087  164.1485 C.ar    1  UNL1        0.0046
      9 C         142.1437  142.3854  163.7016 C.ar    1  UNL1        0.0498
     10 C         142.5806  142.3963  162.2667 C.ar    1  UNL1        0.0046
     11 C         143.4725  143.4918  161.7626 C.ar    1  UNL1        0.0002
     12 C         143.9276  144.5765  162.6933 C.ar    1  UNL1        0.0000
     13 C         143.4908  144.5656  164.1282 C.ar    1  UNL1        0.0002
     14 C         142.5988  143.4700  164.6324 C.ar    1  UNL1        0.0046
     15 N         142.4379  140.6063  164.8189 N.pl3   1  UNL1       -0.2590
     16 C         142.5756  140.5377  166.3110 C.ar    1  UNL1        0.0919
     17 C         142.5548  141.7976  167.1248 C.ar    1  UNL1        0.1170
     18 N         142.6925  141.7290  168.6169 N.ar    1  UNL1       -0.2211
     19 C         142.8509  140.4005  169.2951 C.ar    1  UNL1        0.1990
     20 N         142.8717  139.1406  168.4814 N.ar    1  UNL1       -0.2211
     21 C         142.7340  139.2092  166.9893 C.ar    1  UNL1        0.1170
     22 C         143.4863  139.9913  163.9399 C.3     1  UNL1        0.0975
     23 C         145.6973  141.3555  163.9112 C.3     1  UNL1        0.0018
     24 C         144.9369  140.1220  164.2988 C.3     1  UNL1        0.0218
@<TRIPOS>BOND
     1    23    24    1
     2    24    22    1
     3    22    15    1
     4    15    16    1
     5    16    17   ar
     6    17    18   ar
     7    18    19   ar
     8    19    20   ar
     9    20    21   ar
    10    15     1    1
    11     1     2    2
    12     1     3    1
    13     3     4   ar
    14     4     5   ar
    15     5     6   ar
    16     6     7   ar
    17     7     8   ar
    18     1     9    1
    19     9    10   ar
    20    10    11   ar
    21    11    12   ar
    22    12    13   ar
    23    13    14   ar
    24    21    16   ar
    25     8     3   ar
    26    14     9   ar
@<TRIPOS>MOLECULE
*****
 24 26 0 0 0
SMALL
GASTEIGER

@<TRIPOS>ATOM
      1 P         141.2748  141.2981  164.2107 P.3     1  UNL1        0.2266
      2 O         140.0933  141.9838  163.5911 O.2     1  UNL1       -0.2903
      3 C         142.1727  142.3880  163.7047 C.ar    1  UNL1        0.0498
      4 C         142.6195  142.3875  162.2728 C.ar    1  UNL1        0.0046
      5 C         143.5173  143.4774  161.7669 C.ar    1  UNL1        0.0002
      6 C         143.9683  144.5679  162.6928 C.ar    1  UNL1        0.0000
      7 C         143.5215  144.5684  164.1247 C.ar    1  UNL1        0.0002
      8 C         142.6237  143.4785  164.6306 C.ar    1  UNL1        0.0046
      9 C         140.3770  140.2082  164.7166 C.ar    1  UNL1        0.0498
     10 C         139.3570  140.5075  165.7748 C.ar    1  UNL1        0.0046
     11 C         138.4591  139.4176  166.2808 C.ar    1  UNL1        0.0002
     12 C         138.5813  138.0284  165.7285 C.ar    1  UNL1        0.0000
     13 C         139.6014  137.7291  164.6703 C.ar    1  UNL1        0.0002
     14 C         140.4992  138.8190  164.1644 C.ar    1  UNL1        0.0046
     15 N         142.4563  140.6125  164.8303 N.pl3   1  UNL1       -0.2590
     16 C         142.5890  140.5494  166.3231 C.ar    1  UNL1        0.0919
     17 C         142.5847  141.8135  167.1305 C.ar    1  UNL1        0.1170
     18 N         142.7174  141.7504  168.6233 N.ar    1  UNL1       -0.2211
     19 C         142.8544  140.4232  169.3086 C.ar    1  UNL1        0.1990
     20 N         142.8587  139.1591  168.5012 N.ar    1  UNL1       -0.2211
     21 C         142.7260  139.2222  167.0085 C.ar    1  UNL1        0.1170
     22 C         143.5051  139.9899  163.9572 C.3     1  UNL1        0.0975
     23 C         145.7129  141.3594  163.9425 C.3     1  UNL1        0.0018
     24 C         144.9554  140.1204  164.3177 C.3     1  UNL1        0.0218
@<TRIPOS>BOND
     1    23    24    1
     2    24    22    1
     3    22    15    1
     4    15    16    1
     5    16    17   ar
     6    17    18   ar
     7    18    19   ar
     8    19    20   ar
     9    20    21   ar
    10    15     1    1
    11     1     2    2
    12     1     3    1
    13     3     4   ar
    14     4     5   ar
    15     5     6   ar
    16     6     7   ar
    17     7     8   ar
    18     1     9    1
    19     9    10   ar
    20    10    11   ar
    21    11    12   ar
    22    12    13   ar
    23    13    14   ar
    24    21    16   ar
    25     8     3   ar
    26    14     9   ar
@<TRIPOS>MOLECULE
*****
 24 26 0 0 0
SMALL
GASTEIGER

@<TRIPOS>ATOM
      1 P         141.7244  140.0957  165.3708 P.3     1  UNL1        0.2266
      2 O         142.4090  139.5323  166.5807 O.2     1  UNL1       -0.2903
      3 C         143.0120  140.7323  164.9386 C.ar    1  UNL1        0.0498
      4 C         143.2650  142.1827  165.2254 C.ar    1  UNL1        0.0046
      5 C         144.5526  142.8193  164.7932 C.ar    1  UNL1        0.0002
      6 C         145.5873  142.0055  164.0742 C.ar    1  UNL1        0.0000
      7 C         145.3343  140.5551  163.7873 C.ar    1  UNL1        0.0002
      8 C         144.0467  139.9185  164.2195 C.ar    1  UNL1        0.0046
      9 C         140.4368  139.4591  165.8030 C.ar    1  UNL1        0.0498
     10 C         139.7057  139.9851  167.0025 C.ar    1  UNL1        0.0046
     11 C         138.4181  139.3485  167.4347 C.ar    1  UNL1        0.0002
     12 C         137.8615  138.1860  166.6674 C.ar    1  UNL1        0.0000
     13 C         138.5926  137.6600  165.4679 C.ar    1  UNL1        0.0002
     14 C         139.8803  138.2966  165.0357 C.ar    1  UNL1        0.0046
     15 N         141.0398  140.6591  164.1609 N.pl3   1  UNL1       -0.2590
     16 C         139.9897  141.7187  164.3186 C.ar    1  UNL1        0.0919
     17 C         140.3215  143.0059  165.0135 C.ar    1  UNL1        0.1170
     18 N         139.2715  144.0653  165.1712 N.ar    1  UNL1       -0.2211
     19 C         137.8896  143.8375  164.6341 C.ar    1  UNL1        0.1990
     20 N         137.5578  142.5503  163.9392 N.ar    1  UNL1       -0.2211
     21 C         138.6078  141.4909  163.7815 C.ar    1  UNL1        0.1170
     22 C         141.4051  140.1630  162.7933 C.3     1  UNL1        0.0975
     23 C         142.5962  142.0966  161.5313 C.3     1  UNL1        0.0018
     24 C         141.4633  141.1196  161.6392 C.3     1  UNL1        0.0218
@<TRIPOS>BOND
     1    23    24    1
     2    24    22    1
     3    22    15    1
     4    15    16    1
     5    16    17   ar
     6    17    18   ar
     7    18    19   ar
     8    19    20   ar
     9    20    21   ar
    10    15     1    1
    11     1     2    2
    12     1     3    1
    13     3     4   ar
    14     4     5   ar
    15     5     6   ar
    16     6     7   ar
    17     7     8   ar
    18     1     9    1
    19     9    10   ar
    20    10    11   ar
    21    11    12   ar
    22    12    13   ar
    23    13    14   ar
    24    21    16   ar
    25     8     3   ar
    26    14     9   ar
@<TRIPOS>MOLECULE
*****
 24 26 0 0 0
SMALL
GASTEIGER

@<TRIPOS>ATOM
      1 P         141.7396  140.1565  165.3642 P.3     1  UNL1        0.2266
      2 O         142.4266  139.6001  166.5760 O.2     1  UNL1       -0.2903
      3 C         140.4548  139.5156  165.7983 C.ar    1  UNL1        0.0498
      4 C         139.8939  138.3600  165.0238 C.ar    1  UNL1        0.0046
      5 C         138.6090  137.7191  165.4579 C.ar    1  UNL1        0.0002
      6 C         137.8851  138.2338  166.6665 C.ar    1  UNL1        0.0000
      7 C         138.4459  139.3895  167.4411 C.ar    1  UNL1        0.0002
      8 C         139.7308  140.0303  167.0069 C.ar    1  UNL1        0.0046
      9 C         143.0244  140.7974  164.9300 C.ar    1  UNL1        0.0498
     10 C         143.2926  142.2365  165.2569 C.ar    1  UNL1        0.0046
     11 C         144.5775  142.8774  164.8228 C.ar    1  UNL1        0.0002
     12 C         145.5941  142.0791  164.0618 C.ar    1  UNL1        0.0000
     13 C         145.3259  140.6400  163.7349 C.ar    1  UNL1        0.0002
     14 C         144.0411  139.9991  164.1690 C.ar    1  UNL1        0.0046
     15 N         141.0526  140.7129  164.1524 N.pl3   1  UNL1       -0.2590
     16 C         140.0080  141.7785  164.3055 C.ar    1  UNL1        0.0919
     17 C         140.3507  143.0732  164.9810 C.ar    1  UNL1        0.1170
     18 N         139.3061  144.1387  165.1341 N.ar    1  UNL1       -0.2211
     19 C         137.9188  143.9095  164.6117 C.ar    1  UNL1        0.1990
     20 N         137.5761  142.6149  163.9362 N.ar    1  UNL1       -0.2211
     21 C         138.6207  141.5494  163.7831 C.ar    1  UNL1        0.1170
     22 C         141.4102  140.2038  162.7875 C.3     1  UNL1        0.0975
     23 C         142.4740  142.2615  161.6110 C.3     1  UNL1        0.0018
     24 C         141.4667  141.1502  161.6250 C.3     1  UNL1        0.0218
@<TRIPOS>BOND
     1    23    24    1
     2    24    22    1
     3    22    15    1
     4    15    16    1
     5    16    17   ar
     6    17    18   ar
     7    18    19   ar
     8    19    20   ar
     9    20    21   ar
    10    15     1    1
    11     1     2    2
    12     1     3    1
    13     3     4   ar
    14     4     5   ar
    15     5     6   ar
    16     6     7   ar
    17     7     8   ar
    18     1     9    1
    19     9    10   ar
    20    10    11   ar
    21    11    12   ar
    22    12    13   ar
    23    13    14   ar
    24    21    16   ar
    25     8     3   ar
    26    14     9   ar
@<TRIPOS>MOLECULE
*****
 24 26 0 0 0
SMALL
GASTEIGER

@<TRIPOS>ATOM
      1 P         141.2404  140.4206  165.5188 P.3     1  UNL1        0.2266
      2 O         142.1983  139.3638  165.9834 O.2     1  UNL1       -0.2903
      3 C         140.0869  139.5209  165.8506 C.ar    1  UNL1        0.0498
      4 C         139.8419  138.2846  165.0373 C.ar    1  UNL1        0.0046
      5 C         138.6884  137.3850  165.3691 C.ar    1  UNL1        0.0002
      6 C         137.7800  137.7216  166.5142 C.ar    1  UNL1        0.0000
      7 C         138.0250  138.9578  167.3276 C.ar    1  UNL1        0.0002
      8 C         139.1785  139.8575  166.9958 C.ar    1  UNL1        0.0046
      9 C         142.3939  141.3202  165.1871 C.ar    1  UNL1        0.0498
     10 C         142.9584  141.3344  163.7975 C.ar    1  UNL1        0.0046
     11 C         144.1119  142.2341  163.4657 C.ar    1  UNL1        0.0002
     12 C         144.7009  143.1195  164.5235 C.ar    1  UNL1        0.0000
     13 C         144.1363  143.1053  165.9131 C.ar    1  UNL1        0.0002
     14 C         142.9828  142.2057  166.2449 C.ar    1  UNL1        0.0046
     15 N         140.2826  141.4773  165.0543 N.pl3   1  UNL1       -0.2590
     16 C         139.4621  141.2549  163.8184 C.ar    1  UNL1        0.0919
     17 C         137.9680  141.3735  163.8787 C.ar    1  UNL1        0.1170
     18 N         137.1476  141.1511  162.6428 N.ar    1  UNL1       -0.2211
     19 C         137.8212  140.8102  161.3467 C.ar    1  UNL1        0.1990
     20 N         139.3153  140.6916  161.2864 N.ar    1  UNL1       -0.2211
     21 C         140.1357  140.9140  162.5223 C.ar    1  UNL1        0.1170
     22 C         140.1452  142.7564  165.8257 C.3     1  UNL1        0.0975
     23 C         138.6595  144.8392  165.3730 C.3     1  UNL1        0.0018
     24 C         139.9039  144.0473  165.1006 C.3     1  UNL1        0.0218
@<TRIPOS>BOND
     1    23    24    1
     2    24    22    1
     3    22    15    1
     4    15    16    1
     5    16    17   ar
     6    17    18   ar
     7    18    19   ar
     8    19    20   ar
     9    20    21   ar
    10    15     1    1
    11     1     2    2
    12     1     3    1
    13     3     4   ar
    14     4     5   ar
    15     5     6   ar
    16     6     7   ar
    17     7     8   ar
    18     1     9    1
    19     9    10   ar
    20    10    11   ar
    21    11    12   ar
    22    12    13   ar
    23    13    14   ar
    24    21    16   ar
    25     8     3   ar
    26    14     9   ar
@<TRIPOS>MOLECULE
*****
 24 26 0 0 0
SMALL
GASTEIGER

@<TRIPOS>ATOM
      1 P         141.2931  140.4766  165.4699 P.3     1  UNL1        0.2266
      2 O         142.2514  139.4243  165.9436 O.2     1  UNL1       -0.2903
      3 C         142.4464  141.3726  165.1276 C.ar    1  UNL1        0.0498
      4 C         142.9883  141.3964  163.7291 C.ar    1  UNL1        0.0046
      5 C         144.1416  142.2924  163.3868 C.ar    1  UNL1        0.0002
      6 C         144.7529  143.1646  164.4429 C.ar    1  UNL1        0.0000
      7 C         144.2110  143.1408  165.8414 C.ar    1  UNL1        0.0002
      8 C         143.0577  142.2448  166.1837 C.ar    1  UNL1        0.0046
      9 C         140.1399  139.5806  165.8122 C.ar    1  UNL1        0.0498
     10 C         139.8818  138.3466  164.9994 C.ar    1  UNL1        0.0046
     11 C         138.7286  137.4506  165.3418 C.ar    1  UNL1        0.0002
     12 C         137.8334  137.7886  166.4969 C.ar    1  UNL1        0.0000
     13 C         138.0915  139.0226  167.3097 C.ar    1  UNL1        0.0002
     14 C         139.2447  139.9186  166.9674 C.ar    1  UNL1        0.0046
     15 N         140.3349  141.5289  164.9962 N.pl3   1  UNL1       -0.2590
     16 C         139.4841  141.2786  163.7863 C.ar    1  UNL1        0.0919
     17 C         137.9930  141.4129  163.8773 C.ar    1  UNL1        0.1170
     18 N         137.1423  141.1626  162.6675 N.ar    1  UNL1       -0.2211
     19 C         137.7828  140.7781  161.3668 C.ar    1  UNL1        0.1990
     20 N         139.2739  140.6438  161.2758 N.ar    1  UNL1       -0.2211
     21 C         140.1246  140.8941  162.4856 C.ar    1  UNL1        0.1170
     22 C         140.2275  142.8315  165.7322 C.3     1  UNL1        0.0975
     23 C         141.0653  144.6862  164.1171 C.3     1  UNL1        0.0018
     24 C         139.9818  144.1028  164.9749 C.3     1  UNL1        0.0218
@<TRIPOS>BOND
     1    23    24    1
     2    24    22    1
     3    22    15    1
     4    15    16    1
     5    16    17   ar
     6    17    18   ar
     7    18    19   ar
     8    19    20   ar
     9    20    21   ar
    10    15     1    1
    11     1     2    2
    12     1     3    1
    13     3     4   ar
    14     4     5   ar
    15     5     6   ar
    16     6     7   ar
    17     7     8   ar
    18     1     9    1
    19     9    10   ar
    20    10    11   ar
    21    11    12   ar
    22    12    13   ar
    23    13    14   ar
    24    21    16   ar
    25     8     3   ar
    26    14     9   ar
@<TRIPOS>MOLECULE
*****
 24 26 0 0 0
SMALL
GASTEIGER

@<TRIPOS>ATOM
      1 P         140.9919  141.4182  164.7621 P.3     1  UNL1        0.2266
      2 O         140.0865  141.7623  163.6168 O.2     1  UNL1       -0.2903
      3 C         140.1630  140.2021  165.0520 C.ar    1  UNL1        0.0498
      4 C         140.4049  138.9311  164.2929 C.ar    1  UNL1        0.0046
      5 C         139.5760  137.7151  164.5828 C.ar    1  UNL1        0.0002
      6 C         138.5052  137.7699  165.6317 C.ar    1  UNL1        0.0000
      7 C         138.2632  139.0408  166.3907 C.ar    1  UNL1        0.0002
      8 C         139.0922  140.2569  166.1009 C.ar    1  UNL1        0.0046
      9 C         141.8208  142.6343  164.4722 C.ar    1  UNL1        0.0498
     10 C         143.3109  142.5144  164.3496 C.ar    1  UNL1        0.0046
     11 C         144.1398  143.7305  164.0597 C.ar    1  UNL1        0.0002
     12 C         143.4786  145.0664  163.8924 C.ar    1  UNL1        0.0000
     13 C         141.9885  145.1863  164.0150 C.ar    1  UNL1        0.0002
     14 C         141.1596  143.9702  164.3049 C.ar    1  UNL1        0.0046
     15 N         141.8973  141.0740  165.9074 N.pl3   1  UNL1       -0.2590
     16 C         141.8040  141.8402  167.1936 C.ar    1  UNL1        0.0919
     17 C         140.4904  142.4196  167.6279 C.ar    1  UNL1        0.1170
     18 N         140.3971  143.1857  168.9141 N.ar    1  UNL1       -0.2211
     19 C         141.6175  143.3724  169.7660 C.ar    1  UNL1        0.1990
     20 N         142.9311  142.7930  169.3318 N.ar    1  UNL1       -0.2211
     21 C         143.0244  142.0269  168.0456 C.ar    1  UNL1        0.1170
     22 C         142.8961  139.9638  165.7665 C.3     1  UNL1        0.0975
     23 C         144.0229  137.8214  166.7102 C.3     1  UNL1        0.0018
     24 C         142.9672  138.8828  166.8040 C.3     1  UNL1        0.0218
@<TRIPOS>BOND
     1    23    24    1
     2    24    22    1
     3    22    15    1
     4    15    16    1
     5    16    17   ar
     6    17    18   ar
     7    18    19   ar
     8    19    20   ar
     9    20    21   ar
    10    15     1    1
    11     1     2    2
    12     1     3    1
    13     3     4   ar
    14     4     5   ar
    15     5     6   ar
    16     6     7   ar
    17     7     8   ar
    18     1     9    1
    19     9    10   ar
    20    10    11   ar
    21    11    12   ar
    22    12    13   ar
    23    13    14   ar
    24    21    16   ar
    25     8     3   ar
    26    14     9   ar
@<TRIPOS>MOLECULE
*****
 24 26 0 0 0
SMALL
GASTEIGER

@<TRIPOS>ATOM
      1 P         141.0458  140.5018  167.2990 P.3     1  UNL1        0.2266
      2 O         140.4366  139.6456  168.3696 O.2     1  UNL1       -0.2903
      3 C         141.5251  141.4662  168.3431 C.ar    1  UNL1        0.0498
      4 C         140.6427  142.5974  168.7808 C.ar    1  UNL1        0.0046
      5 C         141.1220  143.5619  169.8249 C.ar    1  UNL1        0.0002
      6 C         142.4838  143.3952  170.4311 C.ar    1  UNL1        0.0000
      7 C         143.3663  142.2640  169.9934 C.ar    1  UNL1        0.0002
      8 C         142.8869  141.2995  168.9494 C.ar    1  UNL1        0.0046
      9 C         140.5664  139.5373  166.2550 C.ar    1  UNL1        0.0498
     10 C         141.5521  138.6838  165.5133 C.ar    1  UNL1        0.0046
     11 C         141.0727  137.7193  164.4693 C.ar    1  UNL1        0.0002
     12 C         139.6077  137.6083  164.1669 C.ar    1  UNL1        0.0000
     13 C         138.6221  138.4618  164.9086 C.ar    1  UNL1        0.0002
     14 C         139.1015  139.4262  165.9526 C.ar    1  UNL1        0.0046
     15 N         141.6549  141.3579  166.2285 N.pl3   1  UNL1       -0.2590
     16 C         140.7727  142.0879  165.2595 C.ar    1  UNL1        0.0919
     17 C         140.8864  141.8144  163.7890 C.ar    1  UNL1        0.1170
     18 N         140.0042  142.5443  162.8201 N.ar    1  UNL1       -0.2211
     19 C         139.0085  143.5478  163.3216 C.ar    1  UNL1        0.1990
     20 N         138.8948  143.8213  164.7920 N.ar    1  UNL1       -0.2211
     21 C         139.7770  143.0913  165.7609 C.ar    1  UNL1        0.1170
     22 C         143.1461  141.4840  166.1270 C.3     1  UNL1        0.0975
     23 C         144.6634  142.9221  164.5843 C.3     1  UNL1        0.0018
     24 C         143.7651  142.8055  165.7799 C.3     1  UNL1        0.0218
@<TRIPOS>BOND
     1    23    24    1
     2    24    22    1
     3    22    15    1
     4    15    16    1
     5    16    17   ar
     6    17    18   ar
     7    18    19   ar
     8    19    20   ar
     9    20    21   ar
    10    15     1    1
    11     1     2    2
    12     1     3    1
    13     3     4   ar
    14     4     5   ar
    15     5     6   ar
    16     6     7   ar
    17     7     8   ar
    18     1     9    1
    19     9    10   ar
    20    10    11   ar
    21    11    12   ar
    22    12    13   ar
    23    13    14   ar
    24    21    16   ar
    25     8     3   ar
    26    14     9   ar
@<TRIPOS>MOLECULE
*****
 24 26 0 0 0
SMALL
GASTEIGER

@<TRIPOS>ATOM
      1 P         141.0428  140.4910  167.2929 P.3     1  UNL1        0.2266
      2 O         140.4321  139.6356  168.3631 O.2     1  UNL1       -0.2903
      3 C         140.5665  139.5249  166.2490 C.ar    1  UNL1        0.0498
      4 C         141.5543  138.6712  165.5106 C.ar    1  UNL1        0.0046
      5 C         141.0780  137.7052  164.4666 C.ar    1  UNL1        0.0002
      6 C         139.6138  137.5929  164.1610 C.ar    1  UNL1        0.0000
      7 C         138.6259  138.4466  164.8994 C.ar    1  UNL1        0.0002
      8 C         139.1023  139.4126  165.9434 C.ar    1  UNL1        0.0046
      9 C         141.5192  141.4570  168.3369 C.ar    1  UNL1        0.0498
     10 C         140.6365  142.5903  168.7686 C.ar    1  UNL1        0.0046
     11 C         141.1129  143.5563  169.8125 C.ar    1  UNL1        0.0002
     12 C         142.4719  143.3891  170.4248 C.ar    1  UNL1        0.0000
     13 C         143.3546  142.2558  169.9931 C.ar    1  UNL1        0.0002
     14 C         142.8783  141.2897  168.9492 C.ar    1  UNL1        0.0046
     15 N         141.6536  141.3463  166.2227 N.pl3   1  UNL1       -0.2590
     16 C         140.7729  142.0753  165.2515 C.ar    1  UNL1        0.0919
     17 C         139.7730  143.0758  165.7508 C.ar    1  UNL1        0.1170
     18 N         138.8924  143.8046  164.7796 N.ar    1  UNL1       -0.2211
     19 C         139.0116  143.5330  163.3092 C.ar    1  UNL1        0.1990
     20 N         140.0115  142.5325  162.8100 N.ar    1  UNL1       -0.2211
     21 C         140.8921  141.8036  163.7812 C.ar    1  UNL1        0.1170
     22 C         143.1449  141.4728  166.1237 C.3     1  UNL1        0.0975
     23 C         144.5940  142.9594  164.5615 C.3     1  UNL1        0.0018
     24 C         143.7654  142.8000  165.8016 C.3     1  UNL1        0.0218
@<TRIPOS>BOND
     1    23    24    1
     2    24    22    1
     3    22    15    1
     4    15    16    1
     5    16    17   ar
     6    17    18   ar
     7    18    19   ar
     8    19    20   ar
     9    20    21   ar
    10    15     1    1
    11     1     2    2
    12     1     3    1
    13     3     4   ar
    14     4     5   ar
    15     5     6   ar
    16     6     7   ar
    17     7     8   ar
    18     1     9    1
    19     9    10   ar
    20    10    11   ar
    21    11    12   ar
    22    12    13   ar
    23    13    14   ar
    24    21    16   ar
    25     8     3   ar
    26    14     9   ar
