@<TRIPOS>MOLECULE
*****
 34 38 0 0 0
SMALL
GASTEIGER

@<TRIPOS>ATOM
      1 C         138.8959  137.3051  163.8181 C.3     1  UNL1        0.0721
      2 C         139.0879  140.4590  160.6140 C.3     1  UNL1        0.0841
      3 C         137.7985  139.7420  160.8843 C.3     1  UNL1        0.0376
      4 C         137.7344  138.6907  161.9523 C.3     1  UNL1        0.0738
      5 N         138.9599  138.3564  162.7501 N.3     1  UNL1       -0.2726
      6 C         140.2494  139.0734  162.4798 C.3     1  UNL1        0.0738
      7 C         140.3135  140.1247  161.4118 C.3     1  UNL1        0.0376
      8 O         137.8387  140.2189  157.6087 O.2     1  UNL1       -0.2501
      9 C         138.5778  141.4000  158.1646 C.2     1  UNL1        0.3309
     10 N         138.8724  142.6780  157.4368 N.am    1  UNL1       -0.1647
     11 C         139.6287  143.5783  158.3683 C.2     1  UNL1        0.0706
     12 C         140.1823  144.9619  158.1979 C.3     1  UNL1        0.0705
     13 C         140.9087  145.6238  159.3311 C.2     1  UNL1       -0.0199
     14 C         141.0814  144.9021  160.6347 C.2     1  UNL1       -0.0029
     15 C         140.5278  143.5185  160.8050 C.2     1  UNL1        0.0156
     16 C         139.8014  142.8566  159.6719 C.2     1  UNL1        0.0668
     17 N         139.1520  141.5103  159.5460 N.am    1  UNL1       -0.2423
     18 C         138.8985  137.7038  165.2641 C.3     1  UNL1        0.0180
     19 C         138.2729  139.0004  165.6857 C.3     1  UNL1        0.0102
     20 C         139.1408  140.1588  166.0793 C.3     1  UNL1        0.0446
     21 C         139.0257  141.4642  165.3496 C.ar    1  UNL1       -0.0183
     22 C         139.8826  142.6273  165.7534 C.ar    1  UNL1       -0.0017
     23 C         139.7674  143.9327  165.0237 C.ar    1  UNL1        0.0293
     24 C         138.7954  144.0751  163.8902 C.ar    1  UNL1        0.1401
     25 F         138.6802  145.3805  163.1604 F       1  UNL1       -0.2042
     26 C         137.9385  142.9120  163.4864 C.ar    1  UNL1        0.0293
     27 C         138.0537  141.6066  164.2161 C.ar    1  UNL1       -0.0017
     28 C         140.1239  140.0116  167.2028 C.ar    1  UNL1       -0.0183
     29 C         139.6672  140.1627  168.6236 C.ar    1  UNL1       -0.0017
     30 C         140.6503  140.0155  169.7469 C.ar    1  UNL1        0.0293
     31 C         142.0899  139.7174  169.4495 C.ar    1  UNL1        0.1401
     32 F         143.0729  139.5703  170.5729 F       1  UNL1       -0.2042
     33 C         142.5466  139.5664  168.0287 C.ar    1  UNL1        0.0293
     34 C         141.5636  139.7135  166.9054 C.ar    1  UNL1       -0.0017
@<TRIPOS>BOND
     1     8     9    2
     2     9    10    1
     3    10    11    2
     4    11    12    1
     5    12    13    1
     6    13    14    2
     7    14    15    1
     8    15    16    2
     9    16    17    1
    10    17     2    1
    11     2     3    1
    12     3     4    1
    13     4     5    1
    14     5     1    1
    15     1    18    1
    16    18    19    1
    17    19    20    1
    18    20    21    1
    19    21    22   ar
    20    22    23   ar
    21    23    24   ar
    22    24    25    1
    23    24    26   ar
    24    26    27   ar
    25    20    28    1
    26    28    29   ar
    27    29    30   ar
    28    30    31   ar
    29    31    32    1
    30    31    33   ar
    31    33    34   ar
    32     5     6    1
    33     6     7    1
    34    17     9   am
    35     7     2    1
    36    16    11    1
    37    27    21   ar
    38    34    28   ar
@<TRIPOS>MOLECULE
*****
 34 38 0 0 0
SMALL
GASTEIGER

@<TRIPOS>ATOM
      1 C         139.5651  137.5754  164.4677 C.3     1  UNL1        0.0721
      2 C         139.4866  140.2731  160.8667 C.3     1  UNL1        0.0841
      3 C         140.7039  140.2254  161.7417 C.3     1  UNL1        0.0376
      4 C         140.7301  139.3262  162.9421 C.3     1  UNL1        0.0738
      5 N         139.5389  138.4746  163.2674 N.3     1  UNL1       -0.2726
      6 C         138.3215  138.5223  162.3924 C.3     1  UNL1        0.0738
      7 C         138.2953  139.4215  161.1920 C.3     1  UNL1        0.0376
      8 O         138.5857  139.4182  157.8489 O.2     1  UNL1       -0.2501
      9 C         139.0463  140.7793  158.2793 C.2     1  UNL1        0.3309
     10 N         139.1737  141.9865  157.3981 N.am    1  UNL1       -0.1647
     11 C         139.6666  143.1255  158.2406 C.2     1  UNL1        0.0706
     12 C         139.9769  144.5558  157.9123 C.3     1  UNL1        0.0705
     13 C         140.4644  145.4829  158.9860 C.2     1  UNL1       -0.0199
     14 C         140.6416  144.9797  160.3879 C.2     1  UNL1       -0.0029
     15 C         140.3313  143.5494  160.7162 C.2     1  UNL1        0.0156
     16 C         139.8438  142.6223  159.6425 C.2     1  UNL1        0.0668
     17 N         139.4604  141.1723  159.6664 N.am    1  UNL1       -0.2423
     18 C         138.5886  137.7888  165.5861 C.3     1  UNL1        0.0180
     19 C         138.0958  139.1709  165.8980 C.3     1  UNL1        0.0102
     20 C         139.0741  140.2594  166.2268 C.3     1  UNL1        0.0446
     21 C         140.0911  140.0518  167.3096 C.ar    1  UNL1       -0.0183
     22 C         139.6895  140.1753  168.7495 C.ar    1  UNL1       -0.0017
     23 C         140.7065  139.9677  169.8324 C.ar    1  UNL1        0.0293
     24 C         142.1253  139.6368  169.4752 C.ar    1  UNL1        0.1401
     25 F         143.1424  139.4292  170.5579 F       1  UNL1       -0.2042
     26 C         142.5269  139.5133  168.0352 C.ar    1  UNL1        0.0293
     27 C         141.5099  139.7209  166.9524 C.ar    1  UNL1       -0.0017
     28 C         139.0353  141.5556  165.4727 C.ar    1  UNL1       -0.0183
     29 C         138.0632  141.7384  164.3450 C.ar    1  UNL1       -0.0017
     30 C         138.0244  143.0345  163.5910 C.ar    1  UNL1        0.0293
     31 C         138.9577  144.1478  163.9647 C.ar    1  UNL1        0.1401
     32 F         138.9188  145.4439  163.2106 F       1  UNL1       -0.2042
     33 C         139.9297  143.9650  165.0924 C.ar    1  UNL1        0.0293
     34 C         139.9685  142.6689  165.8463 C.ar    1  UNL1       -0.0017
@<TRIPOS>BOND
     1     8     9    2
     2     9    10    1
     3    10    11    2
     4    11    12    1
     5    12    13    1
     6    13    14    2
     7    14    15    1
     8    15    16    2
     9    16    17    1
    10    17     2    1
    11     2     3    1
    12     3     4    1
    13     4     5    1
    14     5     1    1
    15     1    18    1
    16    18    19    1
    17    19    20    1
    18    20    21    1
    19    21    22   ar
    20    22    23   ar
    21    23    24   ar
    22    24    25    1
    23    24    26   ar
    24    26    27   ar
    25    20    28    1
    26    28    29   ar
    27    29    30   ar
    28    30    31   ar
    29    31    32    1
    30    31    33   ar
    31    33    34   ar
    32     5     6    1
    33     6     7    1
    34    17     9   am
    35     7     2    1
    36    16    11    1
    37    27    21   ar
    38    34    28   ar
@<TRIPOS>MOLECULE
*****
 34 38 0 0 0
SMALL
GASTEIGER

@<TRIPOS>ATOM
      1 C         138.9436  137.4927  163.4735 C.3     1  UNL1        0.0721
      2 C         141.6302  138.5761  160.0298 C.3     1  UNL1        0.0841
      3 C         142.2107  137.9653  161.2706 C.3     1  UNL1        0.0376
      4 C         141.3152  137.6041  162.4185 C.3     1  UNL1        0.0738
      5 N         139.8391  137.8538  162.3256 N.3     1  UNL1       -0.2726
      6 C         139.2585  138.4647  161.0847 C.3     1  UNL1        0.0738
      7 C         140.1539  138.8258  159.9368 C.3     1  UNL1        0.0376
      8 O         142.1151  136.7924  157.3404 O.2     1  UNL1       -0.2501
      9 C         142.7485  138.1174  157.6457 C.2     1  UNL1        0.3309
     10 N         143.7161  138.8551  156.7685 N.am    1  UNL1       -0.1647
     11 C         144.0912  140.1310  157.4624 C.2     1  UNL1        0.0706
     12 C         145.0076  141.2530  157.0738 C.3     1  UNL1        0.0705
     13 C         145.1882  142.4258  157.9912 C.2     1  UNL1       -0.0199
     14 C         144.4525  142.4766  159.2974 C.2     1  UNL1       -0.0029
     15 C         143.5361  141.3545  159.6861 C.2     1  UNL1        0.0156
     16 C         143.3554  140.1817  158.7686 C.2     1  UNL1        0.0668
     17 N         142.5256  138.9372  158.8819 N.am    1  UNL1       -0.2423
     18 C         139.3787  137.7736  164.8813 C.3     1  UNL1        0.0180
     19 C         139.0825  139.1046  165.5063 C.3     1  UNL1        0.0102
     20 C         140.2066  139.9764  165.9823 C.3     1  UNL1        0.0446
     21 C         141.4474  140.1204  165.1518 C.ar    1  UNL1       -0.0183
     22 C         142.7017  139.3983  165.5460 C.ar    1  UNL1       -0.0017
     23 C         143.9425  139.5423  164.7155 C.ar    1  UNL1        0.0293
     24 C         143.9289  140.4084  163.4910 C.ar    1  UNL1        0.1401
     25 F         145.1698  140.5524  162.6605 F       1  UNL1       -0.2042
     26 C         142.6747  141.1305  163.0968 C.ar    1  UNL1        0.0293
     27 C         141.4339  140.9865  163.9273 C.ar    1  UNL1       -0.0017
     28 C         140.0898  140.7041  167.2888 C.ar    1  UNL1       -0.0183
     29 C         139.4605  140.0276  168.4705 C.ar    1  UNL1       -0.0017
     30 C         139.3438  140.7554  169.7769 C.ar    1  UNL1        0.0293
     31 C         139.8563  142.1596  169.9016 C.ar    1  UNL1        0.1401
     32 F         139.7396  142.8873  171.2080 F       1  UNL1       -0.2042
     33 C         140.4856  142.8361  168.7199 C.ar    1  UNL1        0.0293
     34 C         140.6023  142.1083  167.4135 C.ar    1  UNL1       -0.0017
@<TRIPOS>BOND
     1     8     9    2
     2     9    10    1
     3    10    11    2
     4    11    12    1
     5    12    13    1
     6    13    14    2
     7    14    15    1
     8    15    16    2
     9    16    17    1
    10    17     2    1
    11     2     3    1
    12     3     4    1
    13     4     5    1
    14     5     1    1
    15     1    18    1
    16    18    19    1
    17    19    20    1
    18    20    21    1
    19    21    22   ar
    20    22    23   ar
    21    23    24   ar
    22    24    25    1
    23    24    26   ar
    24    26    27   ar
    25    20    28    1
    26    28    29   ar
    27    29    30   ar
    28    30    31   ar
    29    31    32    1
    30    31    33   ar
    31    33    34   ar
    32     5     6    1
    33     6     7    1
    34    17     9   am
    35     7     2    1
    36    16    11    1
    37    27    21   ar
    38    34    28   ar
@<TRIPOS>MOLECULE
*****
 34 38 0 0 0
SMALL
GASTEIGER

@<TRIPOS>ATOM
      1 C         144.0073  140.4449  165.1611 C.3     1  UNL1        0.0721
      2 C         141.8154  143.2830  162.4424 C.3     1  UNL1        0.0841
      3 C         142.5324  143.8059  163.6517 C.3     1  UNL1        0.0376
      4 C         143.2630  142.8599  164.5579 C.3     1  UNL1        0.0738
      5 N         143.2767  141.3909  164.2549 N.3     1  UNL1       -0.2726
      6 C         142.5597  140.8679  163.0456 C.3     1  UNL1        0.0738
      7 C         141.8290  141.8140  162.1393 C.3     1  UNL1        0.0376
      8 O         139.3137  145.2009  163.2865 O.2     1  UNL1       -0.2501
      9 C         139.9349  145.1106  161.9241 C.2     1  UNL1        0.3309
     10 N         139.5153  145.8859  160.7106 N.am    1  UNL1       -0.1647
     11 C         140.4059  145.4836  159.5726 C.2     1  UNL1        0.0706
     12 C         140.4588  145.9174  158.1377 C.3     1  UNL1        0.0705
     13 C         141.4818  145.3271  157.2131 C.2     1  UNL1       -0.0199
     14 C         142.4519  144.3031  157.7233 C.2     1  UNL1       -0.0029
     15 C         142.3989  143.8693  159.1582 C.2     1  UNL1        0.0156
     16 C         141.3759  144.4596  160.0828 C.2     1  UNL1        0.0668
     17 N         141.0848  144.2291  161.5362 N.am    1  UNL1       -0.2423
     18 C         143.4163  139.1032  165.4784 C.3     1  UNL1        0.0180
     19 C         142.4633  138.9563  166.6274 C.3     1  UNL1        0.0102
     20 C         141.1237  139.6296  166.5815 C.3     1  UNL1        0.0446
     21 C         140.2059  139.3949  165.4186 C.ar    1  UNL1       -0.0183
     22 C         140.1389  138.0406  164.7773 C.ar    1  UNL1       -0.0017
     23 C         139.2210  137.8060  163.6143 C.ar    1  UNL1        0.0293
     24 C         138.3701  138.9257  163.0927 C.ar    1  UNL1        0.1401
     25 F         137.4522  138.6912  161.9298 F       1  UNL1       -0.2042
     26 C         138.4371  140.2800  163.7340 C.ar    1  UNL1        0.0293
     27 C         139.3550  140.5147  164.8970 C.ar    1  UNL1       -0.0017
     28 C         140.7020  140.5376  167.6986 C.ar    1  UNL1       -0.0183
     29 C         141.2461  141.9332  167.7768 C.ar    1  UNL1       -0.0017
     30 C         140.8244  142.8411  168.8938 C.ar    1  UNL1        0.0293
     31 C         139.8585  142.3534  169.9327 C.ar    1  UNL1        0.1401
     32 F         139.4368  143.2614  171.0497 F       1  UNL1       -0.2042
     33 C         139.3143  140.9578  169.8545 C.ar    1  UNL1        0.0293
     34 C         139.7361  140.0499  168.7375 C.ar    1  UNL1       -0.0017
@<TRIPOS>BOND
     1     8     9    2
     2     9    10    1
     3    10    11    2
     4    11    12    1
     5    12    13    1
     6    13    14    2
     7    14    15    1
     8    15    16    2
     9    16    17    1
    10    17     2    1
    11     2     3    1
    12     3     4    1
    13     4     5    1
    14     5     1    1
    15     1    18    1
    16    18    19    1
    17    19    20    1
    18    20    21    1
    19    21    22   ar
    20    22    23   ar
    21    23    24   ar
    22    24    25    1
    23    24    26   ar
    24    26    27   ar
    25    20    28    1
    26    28    29   ar
    27    29    30   ar
    28    30    31   ar
    29    31    32    1
    30    31    33   ar
    31    33    34   ar
    32     5     6    1
    33     6     7    1
    34    17     9   am
    35     7     2    1
    36    16    11    1
    37    27    21   ar
    38    34    28   ar
@<TRIPOS>MOLECULE
*****
 34 38 0 0 0
SMALL
GASTEIGER

@<TRIPOS>ATOM
      1 C         138.9247  137.3637  163.9364 C.3     1  UNL1        0.0721
      2 C         141.1388  140.0958  161.1286 C.3     1  UNL1        0.0841
      3 C         141.7714  139.6778  162.4227 C.3     1  UNL1        0.0376
      4 C         141.0334  138.7671  163.3587 C.3     1  UNL1        0.0738
      5 N         139.6627  138.2744  163.0004 N.3     1  UNL1       -0.2726
      6 C         139.0300  138.6924  161.7062 C.3     1  UNL1        0.0738
      7 C         139.7680  139.6031  160.7703 C.3     1  UNL1        0.0376
      8 O         143.8209  139.3373  159.4313 O.2     1  UNL1       -0.2501
      9 C         143.1097  140.6578  159.4125 C.2     1  UNL1        0.3309
     10 N         143.5063  141.8616  158.6102 N.am    1  UNL1       -0.1647
     11 C         142.5186  142.9542  158.8945 C.2     1  UNL1        0.0706
     12 C         142.4062  144.3620  158.3892 C.3     1  UNL1        0.0705
     13 C         141.2867  145.2413  158.8618 C.2     1  UNL1       -0.0199
     14 C         140.2796  144.7128  159.8398 C.2     1  UNL1       -0.0029
     15 C         140.3920  143.3050  160.3451 C.2     1  UNL1        0.0156
     16 C         141.5115  142.4257  159.8725 C.2     1  UNL1        0.0668
     17 N         141.8768  141.0065  160.1926 N.am    1  UNL1       -0.2423
     18 C         138.7831  137.7308  165.3839 C.3     1  UNL1        0.0180
     19 C         138.2342  139.0731  165.7670 C.3     1  UNL1        0.0102
     20 C         139.1680  140.1890  166.1316 C.3     1  UNL1        0.0446
     21 C         140.1420  140.0138  167.2588 C.ar    1  UNL1       -0.0183
     22 C         141.5850  139.7276  166.9656 C.ar    1  UNL1       -0.0017
     23 C         142.5590  139.5524  168.0928 C.ar    1  UNL1        0.0293
     24 C         142.0900  139.6634  169.5132 C.ar    1  UNL1        0.1401
     25 F         143.0639  139.4882  170.6405 F       1  UNL1       -0.2042
     26 C         140.6470  139.9496  169.8065 C.ar    1  UNL1        0.0293
     27 C         139.6730  140.1248  168.6792 C.ar    1  UNL1       -0.0017
     28 C         139.1279  141.4801  165.3689 C.ar    1  UNL1       -0.0183
     29 C         138.3164  141.5834  164.1115 C.ar    1  UNL1       -0.0017
     30 C         138.2763  142.8745  163.3490 C.ar    1  UNL1        0.0293
     31 C         139.0475  144.0621  163.8437 C.ar    1  UNL1        0.1401
     32 F         139.0074  145.3531  163.0810 F       1  UNL1       -0.2042
     33 C         139.8590  143.9587  165.1010 C.ar    1  UNL1        0.0293
     34 C         139.8991  142.6677  165.8636 C.ar    1  UNL1       -0.0017
@<TRIPOS>BOND
     1     8     9    2
     2     9    10    1
     3    10    11    2
     4    11    12    1
     5    12    13    1
     6    13    14    2
     7    14    15    1
     8    15    16    2
     9    16    17    1
    10    17     2    1
    11     2     3    1
    12     3     4    1
    13     4     5    1
    14     5     1    1
    15     1    18    1
    16    18    19    1
    17    19    20    1
    18    20    21    1
    19    21    22   ar
    20    22    23   ar
    21    23    24   ar
    22    24    25    1
    23    24    26   ar
    24    26    27   ar
    25    20    28    1
    26    28    29   ar
    27    29    30   ar
    28    30    31   ar
    29    31    32    1
    30    31    33   ar
    31    33    34   ar
    32     5     6    1
    33     6     7    1
    34    17     9   am
    35     7     2    1
    36    16    11    1
    37    27    21   ar
    38    34    28   ar
@<TRIPOS>MOLECULE
*****
 34 38 0 0 0
SMALL
GASTEIGER

@<TRIPOS>ATOM
      1 C         144.0791  140.0143  164.7254 C.3     1  UNL1        0.0721
      2 C         141.8948  142.9957  162.1582 C.3     1  UNL1        0.0841
      3 C         141.9892  141.5620  161.7275 C.3     1  UNL1        0.0376
      4 C         142.7173  140.5682  162.5833 C.3     1  UNL1        0.0738
      5 N         143.3510  141.0081  163.8697 N.3     1  UNL1       -0.2726
      6 C         143.2566  142.4418  164.3004 C.3     1  UNL1        0.0738
      7 C         142.5285  143.4356  163.4447 C.3     1  UNL1        0.0376
      8 O         139.3736  144.8462  163.0901 O.2     1  UNL1       -0.2501
      9 C         140.0078  144.8401  161.7308 C.2     1  UNL1        0.3309
     10 N         139.5946  145.6834  160.5612 N.am    1  UNL1       -0.1647
     11 C         140.4981  145.3540  159.4100 C.2     1  UNL1        0.0706
     12 C         140.5616  145.8722  158.0038 C.3     1  UNL1        0.0705
     13 C         141.5967  145.3434  157.0557 C.2     1  UNL1       -0.0199
     14 C         142.5683  144.2964  157.5138 C.2     1  UNL1       -0.0029
     15 C         142.5048  143.7783  158.9200 C.2     1  UNL1        0.0156
     16 C         141.4697  144.3071  159.8681 C.2     1  UNL1        0.0668
     17 N         141.1667  143.9895  161.3024 N.am    1  UNL1       -0.2423
     18 C         143.3293  138.8830  165.3642 C.3     1  UNL1        0.0180
     19 C         142.5746  139.1095  166.6405 C.3     1  UNL1        0.0102
     20 C         141.2098  139.7309  166.6046 C.3     1  UNL1        0.0446
     21 C         140.7590  140.6162  167.7285 C.ar    1  UNL1       -0.0183
     22 C         139.8266  140.0830  168.7755 C.ar    1  UNL1       -0.0017
     23 C         139.3758  140.9683  169.8993 C.ar    1  UNL1        0.0293
     24 C         139.8574  142.3867  169.9761 C.ar    1  UNL1        0.1401
     25 F         139.4066  143.2721  171.0999 F       1  UNL1       -0.2042
     26 C         140.7898  142.9199  168.9291 C.ar    1  UNL1        0.0293
     27 C         141.2407  142.0346  167.8052 C.ar    1  UNL1       -0.0017
     28 C         140.2959  139.4671  165.4447 C.ar    1  UNL1       -0.0183
     29 C         139.7304  140.6133  164.6596 C.ar    1  UNL1       -0.0017
     30 C         138.8165  140.3495  163.4998 C.ar    1  UNL1        0.0293
     31 C         138.4681  138.9394  163.1251 C.ar    1  UNL1        0.1401
     32 F         137.5541  138.6757  161.9653 F       1  UNL1       -0.2042
     33 C         139.0335  137.7932  163.9102 C.ar    1  UNL1        0.0293
     34 C         139.9474  138.0571  165.0700 C.ar    1  UNL1       -0.0017
@<TRIPOS>BOND
     1     8     9    2
     2     9    10    1
     3    10    11    2
     4    11    12    1
     5    12    13    1
     6    13    14    2
     7    14    15    1
     8    15    16    2
     9    16    17    1
    10    17     2    1
    11     2     3    1
    12     3     4    1
    13     4     5    1
    14     5     1    1
    15     1    18    1
    16    18    19    1
    17    19    20    1
    18    20    21    1
    19    21    22   ar
    20    22    23   ar
    21    23    24   ar
    22    24    25    1
    23    24    26   ar
    24    26    27   ar
    25    20    28    1
    26    28    29   ar
    27    29    30   ar
    28    30    31   ar
    29    31    32    1
    30    31    33   ar
    31    33    34   ar
    32     5     6    1
    33     6     7    1
    34    17     9   am
    35     7     2    1
    36    16    11    1
    37    27    21   ar
    38    34    28   ar
@<TRIPOS>MOLECULE
*****
 34 38 0 0 0
SMALL
GASTEIGER

@<TRIPOS>ATOM
      1 C         139.0137  137.6625  163.7820 C.3     1  UNL1        0.0721
      2 C         141.8987  140.5068  161.8232 C.3     1  UNL1        0.0841
      3 C         142.3839  139.5498  162.8712 C.3     1  UNL1        0.0376
      4 C         141.4223  138.6017  163.5242 C.3     1  UNL1        0.0738
      5 N         139.9753  138.6106  163.1291 N.3     1  UNL1       -0.2726
      6 C         139.4899  139.5676  162.0810 C.3     1  UNL1        0.0738
      7 C         140.4516  140.5157  161.4280 C.3     1  UNL1        0.0376
      8 O         143.0013  143.3012  163.0980 O.2     1  UNL1       -0.2501
      9 C         143.3671  142.7393  161.7562 C.2     1  UNL1        0.3309
     10 N         144.3040  143.3632  160.7647 N.am    1  UNL1       -0.1647
     11 C         144.3762  142.4644  159.5660 C.2     1  UNL1        0.0706
     12 C         145.1391  142.5676  158.2787 C.3     1  UNL1        0.0705
     13 C         145.0098  141.4913  157.2420 C.2     1  UNL1       -0.0199
     14 C         144.1175  140.3119  157.4926 C.2     1  UNL1       -0.0029
     15 C         143.3546  140.2087  158.7799 C.2     1  UNL1        0.0156
     16 C         143.4839  141.2850  159.8166 C.2     1  UNL1        0.0668
     17 N         142.8603  141.4549  161.1702 N.am    1  UNL1       -0.2423
     18 C         138.8291  137.6881  165.2704 C.3     1  UNL1        0.0180
     19 C         138.2662  138.9091  165.9354 C.3     1  UNL1        0.0102
     20 C         139.1660  140.0601  166.2753 C.3     1  UNL1        0.0446
     21 C         140.1646  139.9286  167.3869 C.ar    1  UNL1       -0.0183
     22 C         141.5914  139.5856  167.0765 C.ar    1  UNL1       -0.0017
     23 C         142.5900  139.4541  168.1880 C.ar    1  UNL1        0.0293
     24 C         142.1617  139.6655  169.6099 C.ar    1  UNL1        0.1401
     25 F         143.1602  139.5340  170.7215 F       1  UNL1       -0.2042
     26 C         140.7348  140.0085  169.9203 C.ar    1  UNL1        0.0293
     27 C         139.7362  140.1400  168.8087 C.ar    1  UNL1       -0.0017
     28 C         139.0672  141.3427  165.5037 C.ar    1  UNL1       -0.0183
     29 C         137.9589  141.5378  164.5119 C.ar    1  UNL1       -0.0017
     30 C         137.8602  142.8204  163.7404 C.ar    1  UNL1        0.0293
     31 C         138.8696  143.9078  163.9607 C.ar    1  UNL1        0.1401
     32 F         138.7708  145.1903  163.1891 F       1  UNL1       -0.2042
     33 C         139.9779  143.7127  164.9525 C.ar    1  UNL1        0.0293
     34 C         140.0766  142.4302  165.7240 C.ar    1  UNL1       -0.0017
@<TRIPOS>BOND
     1     8     9    2
     2     9    10    1
     3    10    11    2
     4    11    12    1
     5    12    13    1
     6    13    14    2
     7    14    15    1
     8    15    16    2
     9    16    17    1
    10    17     2    1
    11     2     3    1
    12     3     4    1
    13     4     5    1
    14     5     1    1
    15     1    18    1
    16    18    19    1
    17    19    20    1
    18    20    21    1
    19    21    22   ar
    20    22    23   ar
    21    23    24   ar
    22    24    25    1
    23    24    26   ar
    24    26    27   ar
    25    20    28    1
    26    28    29   ar
    27    29    30   ar
    28    30    31   ar
    29    31    32    1
    30    31    33   ar
    31    33    34   ar
    32     5     6    1
    33     6     7    1
    34    17     9   am
    35     7     2    1
    36    16    11    1
    37    27    21   ar
    38    34    28   ar
@<TRIPOS>MOLECULE
*****
 34 38 0 0 0
SMALL
GASTEIGER

@<TRIPOS>ATOM
      1 C         138.9398  137.4465  163.6916 C.3     1  UNL1        0.0721
      2 C         141.6080  138.5691  160.2461 C.3     1  UNL1        0.0841
      3 C         142.1994  137.9760  161.4904 C.3     1  UNL1        0.0376
      4 C         141.3100  137.6017  162.6388 C.3     1  UNL1        0.0738
      5 N         139.8292  137.8208  162.5431 N.3     1  UNL1       -0.2726
      6 C         139.2377  138.4140  161.2988 C.3     1  UNL1        0.0738
      7 C         140.1271  138.7882  160.1503 C.3     1  UNL1        0.0376
      8 O         142.1838  136.7546  157.5955 O.2     1  UNL1       -0.2501
      9 C         142.7620  138.1093  157.8793 C.2     1  UNL1        0.3309
     10 N         143.7064  138.8678  156.9946 N.am    1  UNL1       -0.1647
     11 C         144.0254  140.1706  157.6661 C.2     1  UNL1        0.0706
     12 C         144.8997  141.3205  157.2619 C.3     1  UNL1        0.0705
     13 C         145.0268  142.5170  158.1575 C.2     1  UNL1       -0.0199
     14 C         144.2795  142.5637  159.4573 C.2     1  UNL1       -0.0029
     15 C         143.4052  141.4138  159.8615 C.2     1  UNL1        0.0156
     16 C         143.2781  140.2173  158.9658 C.2     1  UNL1        0.0668
     17 N         142.4973  138.9433  159.0976 N.am    1  UNL1       -0.2423
     18 C         139.2292  137.9720  165.0664 C.3     1  UNL1        0.0180
     19 C         139.0920  139.4379  165.3533 C.3     1  UNL1        0.0102
     20 C         140.2472  140.2003  165.9313 C.3     1  UNL1        0.0446
     21 C         140.1205  140.8461  167.2792 C.ar    1  UNL1       -0.0183
     22 C         140.6488  142.2326  167.4992 C.ar    1  UNL1       -0.0017
     23 C         140.5220  142.8785  168.8471 C.ar    1  UNL1        0.0293
     24 C         139.8669  142.1377  169.9749 C.ar    1  UNL1        0.1401
     25 F         139.7401  142.7835  171.3229 F       1  UNL1       -0.2042
     26 C         139.3385  140.7512  169.7549 C.ar    1  UNL1        0.0293
     27 C         139.4653  140.1054  168.4070 C.ar    1  UNL1       -0.0017
     28 C         141.5294  140.3169  165.1613 C.ar    1  UNL1       -0.0183
     29 C         142.7140  139.4813  165.5463 C.ar    1  UNL1       -0.0017
     30 C         143.9960  139.5979  164.7764 C.ar    1  UNL1        0.0293
     31 C         144.0934  140.5502  163.6215 C.ar    1  UNL1        0.1401
     32 F         145.3754  140.6668  162.8516 F       1  UNL1       -0.2042
     33 C         142.9087  141.3858  163.2365 C.ar    1  UNL1        0.0293
     34 C         141.6267  141.2692  164.0064 C.ar    1  UNL1       -0.0017
@<TRIPOS>BOND
     1     8     9    2
     2     9    10    1
     3    10    11    2
     4    11    12    1
     5    12    13    1
     6    13    14    2
     7    14    15    1
     8    15    16    2
     9    16    17    1
    10    17     2    1
    11     2     3    1
    12     3     4    1
    13     4     5    1
    14     5     1    1
    15     1    18    1
    16    18    19    1
    17    19    20    1
    18    20    21    1
    19    21    22   ar
    20    22    23   ar
    21    23    24   ar
    22    24    25    1
    23    24    26   ar
    24    26    27   ar
    25    20    28    1
    26    28    29   ar
    27    29    30   ar
    28    30    31   ar
    29    31    32    1
    30    31    33   ar
    31    33    34   ar
    32     5     6    1
    33     6     7    1
    34    17     9   am
    35     7     2    1
    36    16    11    1
    37    27    21   ar
    38    34    28   ar
@<TRIPOS>MOLECULE
*****
 34 38 0 0 0
SMALL
GASTEIGER

@<TRIPOS>ATOM
      1 C         137.7534  144.1606  163.4609 C.3     1  UNL1        0.0721
      2 C         138.8674  141.2218  160.2402 C.3     1  UNL1        0.0841
      3 C         137.9103  140.8206  161.3232 C.3     1  UNL1        0.0376
      4 C         137.5390  141.8002  162.3968 C.3     1  UNL1        0.0738
      5 N         138.1248  143.1810  162.3873 N.3     1  UNL1       -0.2726
      6 C         139.0819  143.5823  161.3044 C.3     1  UNL1        0.0738
      7 C         139.4533  142.6027  160.2308 C.3     1  UNL1        0.0376
      8 O         137.0796  140.4890  157.6103 O.2     1  UNL1       -0.2501
      9 C         138.4170  139.9054  157.9579 C.2     1  UNL1        0.3309
     10 N         139.1675  138.8825  157.1576 N.am    1  UNL1       -0.1647
     11 C         140.4531  138.5871  157.8718 C.2     1  UNL1        0.0706
     12 C         141.5892  137.6615  157.5519 C.3     1  UNL1        0.0705
     13 C         142.7694  137.5763  158.4737 C.2     1  UNL1       -0.0199
     14 C         142.8135  138.4167  159.7154 C.2     1  UNL1       -0.0029
     15 C         141.6773  139.3422  160.0353 C.2     1  UNL1        0.0156
     16 C         140.4971  139.4275  159.1135 C.2     1  UNL1        0.0668
     17 N         139.2388  140.2422  159.1667 N.am    1  UNL1       -0.2423
     18 C         138.2673  143.9732  164.8576 C.3     1  UNL1        0.0180
     19 C         139.7324  143.7554  165.0947 C.3     1  UNL1        0.0102
     20 C         140.2047  142.5011  165.7684 C.3     1  UNL1        0.0446
     21 C         139.9211  141.1647  165.1492 C.ar    1  UNL1       -0.0183
     22 C         138.7603  140.3460  165.6310 C.ar    1  UNL1       -0.0017
     23 C         138.4767  139.0095  165.0117 C.ar    1  UNL1        0.0293
     24 C         139.3539  138.4919  163.9106 C.ar    1  UNL1        0.1401
     25 F         139.0704  137.1555  163.2912 F       1  UNL1       -0.2042
     26 C         140.5147  139.3107  163.4288 C.ar    1  UNL1        0.0293
     27 C         140.7983  140.6471  164.0481 C.ar    1  UNL1       -0.0017
     28 C         140.9606  142.5834  167.0615 C.ar    1  UNL1       -0.0183
     29 C         142.3916  142.1377  167.1234 C.ar    1  UNL1       -0.0017
     30 C         143.1474  142.2200  168.4164 C.ar    1  UNL1        0.0293
     31 C         142.4723  142.7478  169.6475 C.ar    1  UNL1        0.1401
     32 F         143.2283  142.8300  170.9405 F       1  UNL1       -0.2042
     33 C         141.0414  143.1935  169.5857 C.ar    1  UNL1        0.0293
     34 C         140.2856  143.1112  168.2926 C.ar    1  UNL1       -0.0017
@<TRIPOS>BOND
     1     8     9    2
     2     9    10    1
     3    10    11    2
     4    11    12    1
     5    12    13    1
     6    13    14    2
     7    14    15    1
     8    15    16    2
     9    16    17    1
    10    17     2    1
    11     2     3    1
    12     3     4    1
    13     4     5    1
    14     5     1    1
    15     1    18    1
    16    18    19    1
    17    19    20    1
    18    20    21    1
    19    21    22   ar
    20    22    23   ar
    21    23    24   ar
    22    24    25    1
    23    24    26   ar
    24    26    27   ar
    25    20    28    1
    26    28    29   ar
    27    29    30   ar
    28    30    31   ar
    29    31    32    1
    30    31    33   ar
    31    33    34   ar
    32     5     6    1
    33     6     7    1
    34    17     9   am
    35     7     2    1
    36    16    11    1
    37    27    21   ar
    38    34    28   ar
