@<TRIPOS>MOLECULE
*****
 26 28 0 0 0
SMALL
GASTEIGER

@<TRIPOS>ATOM
      1 C         139.7986  140.5451  167.9586 C.ar    1  UNL1        0.0218
      2 C         138.8384  139.6401  168.6720 C.ar    1  UNL1        0.0989
      3 N         137.8639  138.8125  167.8876 N.ar    1  UNL1       -0.2426
      4 C         137.8496  138.8899  166.3896 C.ar    1  UNL1        0.0962
      5 C         138.8098  139.7948  165.6761 C.ar    1  UNL1        0.0166
      6 C         139.7844  140.6224  166.4607 C.ar    1  UNL1        0.0006
      7 C         142.1081  140.8023  169.1206 C.ar    1  UNL1        0.1409
      8 C         143.0825  141.6299  169.9051 C.ar    1  UNL1        0.0665
      9 C         142.7220  143.0279  170.3121 C.ar    1  UNL1        0.1432
     10 F         143.6965  143.8555  171.0967 F       1  UNL1       -0.2041
     11 C         141.3871  143.5983  169.9346 C.ar    1  UNL1        0.0298
     12 C         140.4126  142.7707  169.1501 C.ar    1  UNL1        0.0054
     13 C         140.7731  141.3727  168.7431 C.ar    1  UNL1        0.0356
     14 C         143.0172  139.1401  167.3429 C.3     1  UNL1        0.2525
     15 O         142.4685  139.4043  168.7137 O.3     1  UNL1       -0.4714
     16 C         138.7956  139.8722  164.1782 C.3     1  UNL1        0.1182
     17 N         139.3806  141.0659  163.4833 N.am    1  UNL1       -0.2956
     18 C         138.4769  142.0910  162.8647 C.2     1  UNL1        0.2638
     19 O         136.9884  141.9224  162.9410 O.2     1  UNL1       -0.2685
     20 H         140.3575  141.1765  163.4332 H       1  UNL1        0.1501
     21 C         139.0619  143.2847  162.1698 C.ar    1  UNL1        0.1345
     22 C         138.9457  144.6453  162.7903 C.ar    1  UNL1        0.0238
     23 C         139.5306  145.8390  162.0954 C.ar    1  UNL1        0.0033
     24 C         140.2318  145.6721  160.7799 C.ar    1  UNL1        0.0207
     25 C         140.3480  144.3114  160.1593 C.ar    1  UNL1        0.0990
     26 N         139.7630  143.1177  160.8543 N.ar    1  UNL1       -0.2393
@<TRIPOS>BOND
     1    14    15    1
     2    15     7    1
     3     7     8   ar
     4     8     9   ar
     5     9    10    1
     6     9    11   ar
     7    11    12   ar
     8    12    13   ar
     9    13     1    1
    10     1     2   ar
    11     2     3   ar
    12     3     4   ar
    13     4     5   ar
    14     5    16    1
    15    16    17    1
    16    17    18   am
    17    18    19    2
    18    18    21    1
    19    21    22   ar
    20    22    23   ar
    21    23    24   ar
    22    24    25   ar
    23    25    26   ar
    24     5     6   ar
    25    13     7   ar
    26     6     1   ar
    27    26    21   ar
    28    17    20    1
@<TRIPOS>MOLECULE
*****
 26 28 0 0 0
SMALL
GASTEIGER

@<TRIPOS>ATOM
      1 C         139.6966  140.5625  168.1210 C.ar    1  UNL1        0.0218
      2 C         138.7967  139.6338  168.8810 C.ar    1  UNL1        0.0989
      3 N         137.7807  138.8079  168.1492 N.ar    1  UNL1       -0.2426
      4 C         137.6647  138.9106  166.6571 C.ar    1  UNL1        0.0962
      5 C         138.5646  139.8392  165.8971 C.ar    1  UNL1        0.0166
      6 C         139.5805  140.6652  166.6290 C.ar    1  UNL1        0.0006
      7 C         142.0649  140.8162  169.1585 C.ar    1  UNL1        0.1409
      8 C         143.0808  141.6422  169.8904 C.ar    1  UNL1        0.0665
      9 C         142.7442  143.0404  170.3167 C.ar    1  UNL1        0.1432
     10 F         143.7602  143.8664  171.0487 F       1  UNL1       -0.2041
     11 C         141.3918  143.6127  170.0111 C.ar    1  UNL1        0.0298
     12 C         140.3760  142.7867  169.2792 C.ar    1  UNL1        0.0054
     13 C         140.7125  141.3885  168.8529 C.ar    1  UNL1        0.0356
     14 C         142.9323  139.1617  167.3529 C.3     1  UNL1        0.2525
     15 O         142.4015  139.4180  168.7322 O.3     1  UNL1       -0.4714
     16 C         138.4486  139.9420  164.4051 C.3     1  UNL1        0.1182
     17 N         139.6774  139.8537  163.5495 N.am    1  UNL1       -0.2956
     18 C         140.4579  138.5742  163.4875 C.2     1  UNL1        0.2638
     19 O         140.0094  137.3829  164.2811 O.2     1  UNL1       -0.2685
     20 H         139.9718  140.6356  163.0286 H       1  UNL1        0.1501
     21 C         141.6867  138.4859  162.6319 C.ar    1  UNL1        0.1345
     22 C         142.9435  139.1904  163.0493 C.ar    1  UNL1        0.0238
     23 C         144.1723  139.1021  162.1937 C.ar    1  UNL1        0.0033
     24 C         144.1444  138.3094  160.9206 C.ar    1  UNL1        0.0207
     25 C         142.8876  137.6050  160.5031 C.ar    1  UNL1        0.0990
     26 N         141.6588  137.6932  161.3588 N.ar    1  UNL1       -0.2393
@<TRIPOS>BOND
     1    14    15    1
     2    15     7    1
     3     7     8   ar
     4     8     9   ar
     5     9    10    1
     6     9    11   ar
     7    11    12   ar
     8    12    13   ar
     9    13     1    1
    10     1     2   ar
    11     2     3   ar
    12     3     4   ar
    13     4     5   ar
    14     5    16    1
    15    16    17    1
    16    17    18   am
    17    18    19    2
    18    18    21    1
    19    21    22   ar
    20    22    23   ar
    21    23    24   ar
    22    24    25   ar
    23    25    26   ar
    24     5     6   ar
    25    13     7   ar
    26     6     1   ar
    27    26    21   ar
    28    17    20    1
@<TRIPOS>MOLECULE
*****
 26 28 0 0 0
SMALL
GASTEIGER

@<TRIPOS>ATOM
      1 C         142.5845  140.5310  167.0990 C.ar    1  UNL1        0.0218
      2 C         142.9656  139.0933  167.2937 C.ar    1  UNL1        0.0989
      3 N         143.7830  138.3866  166.2534 N.ar    1  UNL1       -0.2426
      4 C         144.2194  139.1175  165.0182 C.ar    1  UNL1        0.0962
      5 C         143.8383  140.5552  164.8235 C.ar    1  UNL1        0.0166
      6 C         143.0208  141.2619  165.8640 C.ar    1  UNL1        0.0006
      7 C         140.3714  140.7762  168.4376 C.ar    1  UNL1        0.1409
      8 C         139.5540  141.4829  169.4780 C.ar    1  UNL1        0.0665
      9 C         140.1324  142.6511  170.2202 C.ar    1  UNL1        0.1432
     10 F         139.3149  143.3579  171.2606 F       1  UNL1       -0.2041
     11 C         141.5281  143.1126  169.9219 C.ar    1  UNL1        0.0298
     12 C         142.3454  142.4059  168.8816 C.ar    1  UNL1        0.0054
     13 C         141.7671  141.2377  168.1394 C.ar    1  UNL1        0.0356
     14 C         138.9974  139.8338  166.4442 C.3     1  UNL1        0.2525
     15 O         139.7930  139.6080  167.6955 O.3     1  UNL1       -0.4714
     16 C         144.2746  141.2861  163.5885 C.3     1  UNL1        0.1182
     17 N         143.2750  142.0638  162.7848 N.am    1  UNL1       -0.2956
     18 C         143.1629  143.5492  162.9617 C.2     1  UNL1        0.2638
     19 O         144.0504  144.2567  163.9423 O.2     1  UNL1       -0.2685
     20 H         142.6925  141.5994  162.1412 H       1  UNL1        0.1501
     21 C         142.1633  144.3269  162.1580 C.ar    1  UNL1        0.1345
     22 C         141.1010  145.1261  162.8528 C.ar    1  UNL1        0.0238
     23 C         140.1014  145.9038  162.0492 C.ar    1  UNL1        0.0033
     24 C         140.1641  145.8823  160.5506 C.ar    1  UNL1        0.0207
     25 C         141.2263  145.0830  159.8558 C.ar    1  UNL1        0.0990
     26 N         142.2260  144.3053  160.6595 N.ar    1  UNL1       -0.2393
@<TRIPOS>BOND
     1    14    15    1
     2    15     7    1
     3     7     8   ar
     4     8     9   ar
     5     9    10    1
     6     9    11   ar
     7    11    12   ar
     8    12    13   ar
     9    13     1    1
    10     1     2   ar
    11     2     3   ar
    12     3     4   ar
    13     4     5   ar
    14     5    16    1
    15    16    17    1
    16    17    18   am
    17    18    19    2
    18    18    21    1
    19    21    22   ar
    20    22    23   ar
    21    23    24   ar
    22    24    25   ar
    23    25    26   ar
    24     5     6   ar
    25    13     7   ar
    26     6     1   ar
    27    26    21   ar
    28    17    20    1
@<TRIPOS>MOLECULE
*****
 26 28 0 0 0
SMALL
GASTEIGER

@<TRIPOS>ATOM
      1 C         142.6835  140.0405  166.3492 C.ar    1  UNL1        0.0218
      2 C         143.4314  138.7676  166.0841 C.ar    1  UNL1        0.0989
      3 N         144.5796  138.7595  165.1190 N.ar    1  UNL1       -0.2426
      4 C         144.9799  140.0243  164.4189 C.ar    1  UNL1        0.0962
      5 C         144.2319  141.2972  164.6840 C.ar    1  UNL1        0.0166
      6 C         143.0837  141.3053  165.6492 C.ar    1  UNL1        0.0006
      7 C         141.7823  140.3033  168.7718 C.ar    1  UNL1        0.1409
      8 C         140.6341  140.3113  169.7369 C.ar    1  UNL1        0.0665
      9 C         139.2388  140.0646  169.2447 C.ar    1  UNL1        0.1432
     10 F         138.0905  140.0727  170.2099 F       1  UNL1       -0.2041
     11 C         138.9917  139.8099  167.7873 C.ar    1  UNL1        0.0298
     12 C         140.1399  139.8019  166.8222 C.ar    1  UNL1        0.0054
     13 C         141.5352  140.0485  167.3144 C.ar    1  UNL1        0.0356
     14 C         143.5866  141.9255  169.7007 C.3     1  UNL1        0.2525
     15 O         143.1776  140.5500  169.2641 O.3     1  UNL1       -0.4714
     16 C         144.6322  142.5620  163.9840 C.3     1  UNL1        0.1182
     17 N         143.9130  142.9900  162.7392 N.am    1  UNL1       -0.2956
     18 C         142.7945  143.9860  162.8241 C.2     1  UNL1        0.2638
     19 O         142.3952  144.5538  164.1539 O.2     1  UNL1       -0.2685
     20 H         144.1750  142.6173  161.8665 H       1  UNL1        0.1501
     21 C         142.0753  144.4140  161.5794 C.ar    1  UNL1        0.1345
     22 C         140.8183  145.2262  161.6811 C.ar    1  UNL1        0.0238
     23 C         140.0991  145.6542  160.4364 C.ar    1  UNL1        0.0033
     24 C         140.6369  145.2701  159.0897 C.ar    1  UNL1        0.0207
     25 C         141.8938  144.4579  158.9880 C.ar    1  UNL1        0.0990
     26 N         142.6130  144.0299  160.2329 N.ar    1  UNL1       -0.2393
@<TRIPOS>BOND
     1    14    15    1
     2    15     7    1
     3     7     8   ar
     4     8     9   ar
     5     9    10    1
     6     9    11   ar
     7    11    12   ar
     8    12    13   ar
     9    13     1    1
    10     1     2   ar
    11     2     3   ar
    12     3     4   ar
    13     4     5   ar
    14     5    16    1
    15    16    17    1
    16    17    18   am
    17    18    19    2
    18    18    21    1
    19    21    22   ar
    20    22    23   ar
    21    23    24   ar
    22    24    25   ar
    23    25    26   ar
    24     5     6   ar
    25    13     7   ar
    26     6     1   ar
    27    26    21   ar
    28    17    20    1
@<TRIPOS>MOLECULE
*****
 26 28 0 0 0
SMALL
GASTEIGER

@<TRIPOS>ATOM
      1 C         142.0060  142.4838  165.9987 C.ar    1  UNL1        0.0218
      2 C         143.4339  142.0482  165.8526 C.ar    1  UNL1        0.0989
      3 N         144.2986  142.6568  164.7887 N.ar    1  UNL1       -0.2426
      4 C         143.7355  143.7011  163.8709 C.ar    1  UNL1        0.0962
      5 C         142.3076  144.1368  164.0170 C.ar    1  UNL1        0.0166
      6 C         141.4429  143.5281  165.0810 C.ar    1  UNL1        0.0006
      7 C         140.4306  140.5803  166.8016 C.ar    1  UNL1        0.1409
      8 C         139.5660  139.9717  167.8655 C.ar    1  UNL1        0.0665
      9 C         139.4119  140.6580  169.1904 C.ar    1  UNL1        0.1432
     10 F         138.5472  140.0493  170.2543 F       1  UNL1       -0.2041
     11 C         140.1225  141.9529  169.4513 C.ar    1  UNL1        0.0298
     12 C         140.9872  142.5615  168.3875 C.ar    1  UNL1        0.0054
     13 C         141.1413  141.8752  167.0626 C.ar    1  UNL1        0.0356
     14 C         141.5423  138.7485  165.3324 C.3     1  UNL1        0.2525
     15 O         140.5847  139.8939  165.4768 O.3     1  UNL1       -0.4714
     16 C         141.7444  145.1811  163.0993 C.3     1  UNL1        0.1182
     17 N         141.9046  145.0399  161.6146 N.am    1  UNL1       -0.2956
     18 C         140.7359  145.2870  160.7073 C.2     1  UNL1        0.2638
     19 O         139.4071  145.6752  161.2847 O.2     1  UNL1       -0.2685
     20 H         142.7768  144.7850  161.2356 H       1  UNL1        0.1501
     21 C         140.8961  145.1458  159.2226 C.ar    1  UNL1        0.1345
     22 C         139.9261  144.3116  158.4395 C.ar    1  UNL1        0.0238
     23 C         140.0863  144.1704  156.9548 C.ar    1  UNL1        0.0033
     24 C         141.2166  144.8634  156.2531 C.ar    1  UNL1        0.0207
     25 C         142.1866  145.6975  157.0362 C.ar    1  UNL1        0.0990
     26 N         142.0264  145.8387  158.5210 N.ar    1  UNL1       -0.2393
@<TRIPOS>BOND
     1    14    15    1
     2    15     7    1
     3     7     8   ar
     4     8     9   ar
     5     9    10    1
     6     9    11   ar
     7    11    12   ar
     8    12    13   ar
     9    13     1    1
    10     1     2   ar
    11     2     3   ar
    12     3     4   ar
    13     4     5   ar
    14     5    16    1
    15    16    17    1
    16    17    18   am
    17    18    19    2
    18    18    21    1
    19    21    22   ar
    20    22    23   ar
    21    23    24   ar
    22    24    25   ar
    23    25    26   ar
    24     5     6   ar
    25    13     7   ar
    26     6     1   ar
    27    26    21   ar
    28    17    20    1
@<TRIPOS>MOLECULE
*****
 26 28 0 0 0
SMALL
GASTEIGER

@<TRIPOS>ATOM
      1 C         139.8170  142.3542  166.1149 C.ar    1  UNL1        0.0218
      2 C         139.1328  141.0422  165.8691 C.ar    1  UNL1        0.0989
      3 N         138.1608  140.9041  164.7351 N.ar    1  UNL1       -0.2426
      4 C         137.8728  142.0781  163.8468 C.ar    1  UNL1        0.0962
      5 C         138.5570  143.3901  164.0927 C.ar    1  UNL1        0.0166
      6 C         139.5291  143.5282  165.2268 C.ar    1  UNL1        0.0006
      7 C         142.2325  142.1382  167.0468 C.ar    1  UNL1        0.1409
      8 C         143.2045  142.2762  168.1809 C.ar    1  UNL1        0.0665
      9 C         142.7331  142.7685  169.5171 C.ar    1  UNL1        0.1432
     10 F         143.7052  142.9065  170.6512 F       1  UNL1       -0.2041
     11 C         141.2896  143.1226  169.7192 C.ar    1  UNL1        0.0298
     12 C         140.3176  142.9845  168.5852 C.ar    1  UNL1        0.0054
     13 C         140.7891  142.4923  167.2490 C.ar    1  UNL1        0.0356
     14 C         143.9883  142.1613  165.1320 C.3     1  UNL1        0.2525
     15 O         142.7040  141.6460  165.7106 O.3     1  UNL1       -0.4714
     16 C         138.2691  144.5641  163.2045 C.3     1  UNL1        0.1182
     17 N         138.7633  144.5721  161.7883 N.am    1  UNL1       -0.2956
     18 C         140.1789  144.9688  161.4902 C.2     1  UNL1        0.2638
     19 O         141.1002  145.3575  162.6082 O.2     1  UNL1       -0.2685
     20 H         138.1586  144.3170  161.0545 H       1  UNL1        0.1501
     21 C         140.6731  144.9768  160.0740 C.ar    1  UNL1        0.1345
     22 C         141.8978  144.1943  159.7026 C.ar    1  UNL1        0.0238
     23 C         142.3920  144.2023  158.2864 C.ar    1  UNL1        0.0033
     24 C         141.6615  144.9928  157.2415 C.ar    1  UNL1        0.0207
     25 C         140.4369  145.7752  157.6129 C.ar    1  UNL1        0.0990
     26 N         139.9426  145.7672  159.0292 N.ar    1  UNL1       -0.2393
@<TRIPOS>BOND
     1    14    15    1
     2    15     7    1
     3     7     8   ar
     4     8     9   ar
     5     9    10    1
     6     9    11   ar
     7    11    12   ar
     8    12    13   ar
     9    13     1    1
    10     1     2   ar
    11     2     3   ar
    12     3     4   ar
    13     4     5   ar
    14     5    16    1
    15    16    17    1
    16    17    18   am
    17    18    19    2
    18    18    21    1
    19    21    22   ar
    20    22    23   ar
    21    23    24   ar
    22    24    25   ar
    23    25    26   ar
    24     5     6   ar
    25    13     7   ar
    26     6     1   ar
    27    26    21   ar
    28    17    20    1
@<TRIPOS>MOLECULE
*****
 26 28 0 0 0
SMALL
GASTEIGER

@<TRIPOS>ATOM
      1 C         141.5139  141.8134  165.3657 C.ar    1  UNL1        0.0218
      2 C         142.9501  141.5193  165.6831 C.ar    1  UNL1        0.0989
      3 N         144.0298  142.4375  165.1922 N.ar    1  UNL1       -0.2426
      4 C         143.6734  143.6498  164.3838 C.ar    1  UNL1        0.0962
      5 C         142.2371  143.9439  164.0665 C.ar    1  UNL1        0.0166
      6 C         141.1573  143.0256  164.5574 C.ar    1  UNL1        0.0006
      7 C         140.1783  140.7575  167.3283 C.ar    1  UNL1        0.1409
      8 C         139.0986  139.8393  167.8192 C.ar    1  UNL1        0.0665
      9 C         138.2747  139.0586  166.8385 C.ar    1  UNL1        0.1432
     10 F         137.1949  138.1404  167.3294 F       1  UNL1       -0.2041
     11 C         138.5304  139.1962  165.3669 C.ar    1  UNL1        0.0298
     12 C         139.6101  140.1145  164.8760 C.ar    1  UNL1        0.0054
     13 C         140.4341  140.8951  165.8567 C.ar    1  UNL1        0.0356
     14 C         140.3302  142.3189  169.3992 C.3     1  UNL1        0.2525
     15 O         141.0023  141.5381  168.3090 O.3     1  UNL1       -0.4714
     16 C         141.8806  145.1561  163.2582 C.3     1  UNL1        0.1182
     17 N         142.0094  145.1257  161.7641 N.am    1  UNL1       -0.2956
     18 C         140.7795  145.0953  160.9057 C.2     1  UNL1        0.2638
     19 O         139.4210  145.0953  161.5416 O.2     1  UNL1       -0.2685
     20 H         142.9010  145.1257  161.3467 H       1  UNL1        0.1501
     21 C         140.9083  145.0648  159.4116 C.ar    1  UNL1        0.1345
     22 C         139.9330  144.2743  158.5907 C.ar    1  UNL1        0.0238
     23 C         140.0618  144.2439  157.0966 C.ar    1  UNL1        0.0033
     24 C         141.1659  145.0041  156.4233 C.ar    1  UNL1        0.0207
     25 C         142.1412  145.7946  157.2442 C.ar    1  UNL1        0.0990
     26 N         142.0124  145.8250  158.7384 N.ar    1  UNL1       -0.2393
@<TRIPOS>BOND
     1    14    15    1
     2    15     7    1
     3     7     8   ar
     4     8     9   ar
     5     9    10    1
     6     9    11   ar
     7    11    12   ar
     8    12    13   ar
     9    13     1    1
    10     1     2   ar
    11     2     3   ar
    12     3     4   ar
    13     4     5   ar
    14     5    16    1
    15    16    17    1
    16    17    18   am
    17    18    19    2
    18    18    21    1
    19    21    22   ar
    20    22    23   ar
    21    23    24   ar
    22    24    25   ar
    23    25    26   ar
    24     5     6   ar
    25    13     7   ar
    26     6     1   ar
    27    26    21   ar
    28    17    20    1
@<TRIPOS>MOLECULE
*****
 26 28 0 0 0
SMALL
GASTEIGER

@<TRIPOS>ATOM
      1 C         141.0583  141.9696  165.1763 C.ar    1  UNL1        0.0218
      2 C         139.5992  142.0476  165.5156 C.ar    1  UNL1        0.0989
      3 N         138.7896  143.2318  165.0774 N.ar    1  UNL1       -0.2426
      4 C         139.4389  144.3381  164.2998 C.ar    1  UNL1        0.0962
      5 C         140.8980  144.2601  163.9606 C.ar    1  UNL1        0.0166
      6 C         141.7077  143.0758  164.3988 C.ar    1  UNL1        0.0006
      7 C         141.9864  140.4561  167.0731 C.ar    1  UNL1        0.1409
      8 C         142.7961  139.2719  167.5113 C.ar    1  UNL1        0.0665
      9 C         143.4873  138.4169  166.4909 C.ar    1  UNL1        0.1432
     10 F         144.2969  137.2326  166.9292 F       1  UNL1       -0.2041
     11 C         143.3688  138.7461  165.0323 C.ar    1  UNL1        0.0298
     12 C         142.5592  139.9304  164.5942 C.ar    1  UNL1        0.0054
     13 C         141.8680  140.7854  165.6146 C.ar    1  UNL1        0.0356
     14 C         140.2825  140.7041  169.0187 C.3     1  UNL1        0.2525
     15 O         141.2952  141.3111  168.0936 O.3     1  UNL1       -0.4714
     16 C         141.5473  145.3663  163.1831 C.3     1  UNL1        0.1182
     17 N         141.8862  145.1670  161.7355 N.am    1  UNL1       -0.2956
     18 C         140.8547  145.4354  160.6799 C.2     1  UNL1        0.2638
     19 O         139.4846  145.9033  161.0720 O.2     1  UNL1       -0.2685
     20 H         142.7855  144.8599  161.4782 H       1  UNL1        0.1501
     21 C         141.1936  145.2360  159.2324 C.ar    1  UNL1        0.1345
     22 C         140.3269  145.8425  158.1688 C.ar    1  UNL1        0.0238
     23 C         140.6657  145.6431  156.7213 C.ar    1  UNL1        0.0033
     24 C         141.8713  144.8372  156.3373 C.ar    1  UNL1        0.0207
     25 C         142.7379  144.2308  157.4008 C.ar    1  UNL1        0.0990
     26 N         142.3990  144.4302  158.8484 N.ar    1  UNL1       -0.2393
@<TRIPOS>BOND
     1    14    15    1
     2    15     7    1
     3     7     8   ar
     4     8     9   ar
     5     9    10    1
     6     9    11   ar
     7    11    12   ar
     8    12    13   ar
     9    13     1    1
    10     1     2   ar
    11     2     3   ar
    12     3     4   ar
    13     4     5   ar
    14     5    16    1
    15    16    17    1
    16    17    18   am
    17    18    19    2
    18    18    21    1
    19    21    22   ar
    20    22    23   ar
    21    23    24   ar
    22    24    25   ar
    23    25    26   ar
    24     5     6   ar
    25    13     7   ar
    26     6     1   ar
    27    26    21   ar
    28    17    20    1
@<TRIPOS>MOLECULE
*****
 26 28 0 0 0
SMALL
GASTEIGER

@<TRIPOS>ATOM
      1 C         140.9436  141.9920  165.0858 C.ar    1  UNL1        0.0218
      2 C         139.4720  142.0503  165.3703 C.ar    1  UNL1        0.0989
      3 N         138.6627  143.2217  164.8983 N.ar    1  UNL1       -0.2426
      4 C         139.3250  144.3349  164.1418 C.ar    1  UNL1        0.0962
      5 C         140.7967  144.2766  163.8573 C.ar    1  UNL1        0.0166
      6 C         141.6060  143.1051  164.3293 C.ar    1  UNL1        0.0006
      7 C         142.2801  139.8252  164.5671 C.ar    1  UNL1        0.1409
      8 C         143.0894  138.6538  165.0391 C.ar    1  UNL1        0.0665
      9 C         143.3714  138.4777  166.5018 C.ar    1  UNL1        0.1432
     10 F         144.1807  137.3062  166.9738 F       1  UNL1       -0.2041
     11 C         142.8442  139.4729  167.4925 C.ar    1  UNL1        0.0298
     12 C         142.0350  140.6444  167.0204 C.ar    1  UNL1        0.0054
     13 C         141.7529  140.8205  165.5578 C.ar    1  UNL1        0.0356
     14 C         140.8059  139.3345  162.4849 C.3     1  UNL1        0.2525
     15 O         141.9981  140.0014  163.1044 O.3     1  UNL1       -0.4714
     16 C         141.4590  145.3897  163.1009 C.3     1  UNL1        0.1182
     17 N         141.8245  145.2024  161.6583 N.am    1  UNL1       -0.2956
     18 C         140.8061  145.4586  160.5871 C.2     1  UNL1        0.2638
     19 O         139.4222  145.9021  160.9587 O.2     1  UNL1       -0.2685
     20 H         142.7328  144.9114  161.4144 H       1  UNL1        0.1501
     21 C         141.1716  145.2713  159.1445 C.ar    1  UNL1        0.1345
     22 C         140.3402  145.9092  158.0712 C.ar    1  UNL1        0.0238
     23 C         140.7058  145.7220  156.6286 C.ar    1  UNL1        0.0033
     24 C         141.9027  144.8967  156.2591 C.ar    1  UNL1        0.0207
     25 C         142.7341  144.2588  157.3324 C.ar    1  UNL1        0.0990
     26 N         142.3685  144.4462  158.7751 N.ar    1  UNL1       -0.2393
@<TRIPOS>BOND
     1    14    15    1
     2    15     7    1
     3     7     8   ar
     4     8     9   ar
     5     9    10    1
     6     9    11   ar
     7    11    12   ar
     8    12    13   ar
     9    13     1    1
    10     1     2   ar
    11     2     3   ar
    12     3     4   ar
    13     4     5   ar
    14     5    16    1
    15    16    17    1
    16    17    18   am
    17    18    19    2
    18    18    21    1
    19    21    22   ar
    20    22    23   ar
    21    23    24   ar
    22    24    25   ar
    23    25    26   ar
    24     5     6   ar
    25    13     7   ar
    26     6     1   ar
    27    26    21   ar
    28    17    20    1
