@<TRIPOS>MOLECULE
*****
 29 32 0 0 0
SMALL
GASTEIGER

@<TRIPOS>ATOM
      1 C         141.8067  143.8933  161.3733 C.2     1  UNL1        0.1518
      2 N         143.1777  144.3947  161.7183 N.2     1  UNL1       -0.1775
      3 C         141.1330  142.8845  162.2557 C.ar    1  UNL1        0.0237
      4 C         141.3345  141.4187  162.0088 C.ar    1  UNL1        0.0030
      5 C         140.6608  140.4101  162.8912 C.ar    1  UNL1        0.0184
      6 C         139.7856  140.8671  164.0204 C.ar    1  UNL1        0.1056
      7 C         139.5841  142.3328  164.2673 C.ar    1  UNL1        0.0184
      8 C         140.2578  143.3415  163.3849 C.ar    1  UNL1        0.0030
      9 S         139.1119  139.8583  164.9028 S.O2    1  UNL1        0.0070
     10 O         140.4426  139.4723  165.4774 O.2     1  UNL1       -0.1687
     11 O         137.7812  140.2443  164.3282 O.2     1  UNL1       -0.1687
     12 C         138.4383  138.8496  165.7851 C.3     1  UNL1        0.1339
     13 C         138.0583  137.4285  166.0788 C.3     1  UNL1        0.0257
     14 C         137.6514  138.5234  167.0199 C.3     1  UNL1        0.0257
     15 N         143.8749  143.8874  162.9458 N.pl3   1  UNL1       -0.2327
     16 C         144.7800  142.6933  163.0157 C.3     1  UNL1        0.1110
     17 C         145.2538  142.5531  164.4319 C.3     1  UNL1        0.0250
     18 C         144.6416  143.6605  165.2374 C.3     1  UNL1        0.0250
     19 C         143.7894  144.4852  164.3189 C.3     1  UNL1        0.1110
     20 O         139.6351  144.1827  159.9768 O.2     1  UNL1       -0.2681
     21 C         141.1095  144.4005  160.1459 C.2     1  UNL1        0.2702
     22 N         141.8868  145.1257  159.0875 N.am    1  UNL1       -0.2593
     23 H         142.8545  145.2687  159.1984 H       1  UNL1        0.1571
     24 C         141.1895  145.6329  157.8601 C.ar    1  UNL1        0.1666
     25 N         139.9142  146.4221  157.8332 N.ar    1  UNL1       -0.2215
     26 C         139.5817  146.7170  156.4006 C.ar    1  UNL1        0.1188
     27 C         140.6515  146.1101  155.5420 C.ar    1  UNL1        0.1086
     28 CL        140.7163  146.1638  154.0444 Cl      1  UNL1       -0.0734
     29 S         141.6452  145.4401  156.4440 S.2     1  UNL1       -0.0398
@<TRIPOS>BOND
     1    20    21    2
     2    21    22   am
     3    22    24    1
     4    24    25   ar
     5    25    26   ar
     6    26    27   ar
     7    27    28    1
     8    27    29   ar
     9    21     1    1
    10     1     2    2
    11     2    15    1
    12    15    16    1
    13    16    17    1
    14    17    18    1
    15    18    19    1
    16     1     3    1
    17     3     4   ar
    18     4     5   ar
    19     5     6   ar
    20     6     9    1
    21     9    10    2
    22     9    11    2
    23     9    12    1
    24    12    13    1
    25    13    14    1
    26     6     7   ar
    27     7     8   ar
    28    29    24   ar
    29    19    15    1
    30     8     3   ar
    31    14    12    1
    32    22    23    1
@<TRIPOS>MOLECULE
*****
 29 32 0 0 0
SMALL
GASTEIGER

@<TRIPOS>ATOM
      1 C         141.5914  144.0397  161.4638 C.2     1  UNL1        0.1518
      2 N         142.9994  144.4838  161.7292 N.2     1  UNL1       -0.1775
      3 C         140.9529  143.0055  162.3430 C.ar    1  UNL1        0.0237
      4 C         140.1883  143.4266  163.5628 C.ar    1  UNL1        0.0030
      5 C         139.5499  142.3924  164.4418 C.ar    1  UNL1        0.0184
      6 C         139.6760  140.9371  164.1011 C.ar    1  UNL1        0.1056
      7 C         140.4406  140.5160  162.8812 C.ar    1  UNL1        0.0184
      8 C         141.0791  141.5502  162.0022 C.ar    1  UNL1        0.0030
      9 S         139.0375  139.9029  164.9802 S.O2    1  UNL1        0.0070
     10 O         138.1060  139.5302  163.8651 O.2     1  UNL1       -0.1687
     11 O         139.9690  140.2756  166.0952 O.2     1  UNL1       -0.1687
     12 C         138.3990  138.8687  165.8592 C.3     1  UNL1        0.1339
     13 C         138.1045  137.4313  166.1708 C.3     1  UNL1        0.0257
     14 C         137.5876  138.5148  167.0702 C.3     1  UNL1        0.0257
     15 N         143.7688  143.8937  162.8737 N.pl3   1  UNL1       -0.2327
     16 C         143.7908  144.4112  164.2814 C.3     1  UNL1        0.1110
     17 C         144.6869  143.5198  165.0891 C.3     1  UNL1        0.0250
     18 C         145.2189  142.4513  164.1805 C.3     1  UNL1        0.0250
     19 C         144.6514  142.6824  162.8113 C.3     1  UNL1        0.1110
     20 O         139.7038  145.5937  160.5852 O.2     1  UNL1       -0.2681
     21 C         140.8220  144.6298  160.3194 C.2     1  UNL1        0.2702
     22 N         141.1707  144.2560  158.9092 N.am    1  UNL1       -0.2593
     23 H         141.9045  143.6233  158.7347 H       1  UNL1        0.1571
     24 C         140.4012  144.8460  157.7648 C.ar    1  UNL1        0.1666
     25 N         140.4674  146.2704  157.2991 N.ar    1  UNL1       -0.2215
     26 C         139.5376  146.4200  156.1316 C.ar    1  UNL1        0.1188
     27 C         138.8967  145.0881  155.8757 C.ar    1  UNL1        0.1086
     28 CL        137.8975  144.7827  154.7995 Cl      1  UNL1       -0.0734
     29 S         139.4305  144.1154  156.8851 S.2     1  UNL1       -0.0398
@<TRIPOS>BOND
     1    20    21    2
     2    21    22   am
     3    22    24    1
     4    24    25   ar
     5    25    26   ar
     6    26    27   ar
     7    27    28    1
     8    27    29   ar
     9    21     1    1
    10     1     2    2
    11     2    15    1
    12    15    16    1
    13    16    17    1
    14    17    18    1
    15    18    19    1
    16     1     3    1
    17     3     4   ar
    18     4     5   ar
    19     5     6   ar
    20     6     9    1
    21     9    10    2
    22     9    11    2
    23     9    12    1
    24    12    13    1
    25    13    14    1
    26     6     7   ar
    27     7     8   ar
    28    29    24   ar
    29    19    15    1
    30     8     3   ar
    31    14    12    1
    32    22    23    1
@<TRIPOS>MOLECULE
*****
 29 32 0 0 0
SMALL
GASTEIGER

@<TRIPOS>ATOM
      1 C         142.5414  139.6677  170.0898 C.2     1  UNL1        0.1518
      2 N         142.4256  140.7927  171.0752 N.2     1  UNL1       -0.1775
      3 C         141.7487  139.7012  168.8168 C.ar    1  UNL1        0.0237
      4 C         142.4527  139.6491  167.4933 C.ar    1  UNL1        0.0030
      5 C         141.6600  139.6825  166.2204 C.ar    1  UNL1        0.0184
      6 C         140.1633  139.7681  166.2709 C.ar    1  UNL1        0.1056
      7 C         139.4593  139.8203  167.5943 C.ar    1  UNL1        0.0184
      8 C         140.2519  139.7868  168.8673 C.ar    1  UNL1        0.0030
      9 S         139.3706  139.8016  164.9978 S.O2    1  UNL1        0.0070
     10 O         140.5665  140.3364  164.2673 O.2     1  UNL1       -0.1687
     11 O         138.1746  139.2669  165.7284 O.2     1  UNL1       -0.1687
     12 C         138.5779  139.8351  163.7248 C.3     1  UNL1        0.1339
     13 C         138.1150  139.1658  162.4648 C.3     1  UNL1        0.0257
     14 C         137.6680  140.5626  162.7799 C.3     1  UNL1        0.0257
     15 N         141.5171  141.9511  170.7876 N.pl3   1  UNL1       -0.2327
     16 C         141.8345  143.1230  169.9067 C.3     1  UNL1        0.1110
     17 C         140.6453  144.0372  169.9050 C.3     1  UNL1        0.0250
     18 C         139.5928  143.4303  170.7849 C.3     1  UNL1        0.0250
     19 C         140.1317  142.1411  171.3303 C.3     1  UNL1        0.1110
     20 O         143.5488  137.3737  169.4024 O.2     1  UNL1       -0.2681
     21 C         143.4498  138.5093  170.3774 C.2     1  UNL1        0.2702
     22 N         144.2592  138.4863  171.6401 N.am    1  UNL1       -0.2593
     23 H         144.1942  139.2316  172.2801 H       1  UNL1        0.1571
     24 C         145.1677  137.3279  171.9277 C.ar    1  UNL1        0.1666
     25 N         146.6508  137.2945  171.7064 N.ar    1  UNL1       -0.2215
     26 C         147.1523  135.9454  172.1290 C.ar    1  UNL1        0.1188
     27 C         145.9789  135.1451  172.6116 C.ar    1  UNL1        0.1086
     28 CL        146.0243  133.7375  173.1279 Cl      1  UNL1       -0.0734
     29 S         144.7524  135.9995  172.4872 S.2     1  UNL1       -0.0398
@<TRIPOS>BOND
     1    20    21    2
     2    21    22   am
     3    22    24    1
     4    24    25   ar
     5    25    26   ar
     6    26    27   ar
     7    27    28    1
     8    27    29   ar
     9    21     1    1
    10     1     2    2
    11     2    15    1
    12    15    16    1
    13    16    17    1
    14    17    18    1
    15    18    19    1
    16     1     3    1
    17     3     4   ar
    18     4     5   ar
    19     5     6   ar
    20     6     9    1
    21     9    10    2
    22     9    11    2
    23     9    12    1
    24    12    13    1
    25    13    14    1
    26     6     7   ar
    27     7     8   ar
    28    29    24   ar
    29    19    15    1
    30     8     3   ar
    31    14    12    1
    32    22    23    1
@<TRIPOS>MOLECULE
*****
 29 32 0 0 0
SMALL
GASTEIGER

@<TRIPOS>ATOM
      1 C         143.4609  140.1408  160.4734 C.2     1  UNL1        0.1518
      2 N         144.5007  141.1893  160.7368 N.2     1  UNL1       -0.1775
      3 C         142.4841  139.7664  161.5485 C.ar    1  UNL1        0.0237
      4 C         141.1472  140.4432  161.6161 C.ar    1  UNL1        0.0030
      5 C         140.1706  140.0687  162.6912 C.ar    1  UNL1        0.0184
      6 C         140.5308  139.0174  163.6987 C.ar    1  UNL1        0.1056
      7 C         141.8677  138.3406  163.6311 C.ar    1  UNL1        0.0184
      8 C         142.8443  138.7151  162.5560 C.ar    1  UNL1        0.0030
      9 S         139.5541  138.6430  164.7739 S.O2    1  UNL1        0.0070
     10 O         140.6317  138.7957  165.8060 O.2     1  UNL1       -0.1687
     11 O         138.4764  138.4903  163.7417 O.2     1  UNL1       -0.1687
     12 C         138.5774  138.2686  165.8490 C.3     1  UNL1        0.1339
     13 C         137.7632  137.2283  166.5594 C.3     1  UNL1        0.0257
     14 C         137.7001  138.6604  167.0008 C.3     1  UNL1        0.0257
     15 N         144.5638  141.8633  162.0754 N.pl3   1  UNL1       -0.2327
     16 C         145.3916  141.4229  163.2462 C.3     1  UNL1        0.1110
     17 C         145.1496  142.3835  164.3725 C.3     1  UNL1        0.0250
     18 C         144.1721  143.4177  163.8979 C.3     1  UNL1        0.0250
     19 C         143.8101  143.0961  162.4782 C.3     1  UNL1        0.1110
     20 O         144.2829  139.9336  158.0175 O.2     1  UNL1       -0.2681
     21 C         143.3977  139.4668  159.1349 C.2     1  UNL1        0.2702
     22 N         142.4493  138.3258  158.9136 N.am    1  UNL1       -0.2593
     23 H         141.8683  138.0194  159.6470 H       1  UNL1        0.1571
     24 C         142.3862  137.6518  157.5751 C.ar    1  UNL1        0.1666
     25 N         143.2650  136.5281  157.1115 N.ar    1  UNL1       -0.2215
     26 C         142.8552  136.1649  155.7151 C.ar    1  UNL1        0.1188
     27 C         141.7230  137.0642  155.3156 C.ar    1  UNL1        0.1086
     28 CL        141.0064  137.0474  153.9979 Cl      1  UNL1       -0.0734
     29 S         141.4332  137.9831  156.4652 S.2     1  UNL1       -0.0398
@<TRIPOS>BOND
     1    20    21    2
     2    21    22   am
     3    22    24    1
     4    24    25   ar
     5    25    26   ar
     6    26    27   ar
     7    27    28    1
     8    27    29   ar
     9    21     1    1
    10     1     2    2
    11     2    15    1
    12    15    16    1
    13    16    17    1
    14    17    18    1
    15    18    19    1
    16     1     3    1
    17     3     4   ar
    18     4     5   ar
    19     5     6   ar
    20     6     9    1
    21     9    10    2
    22     9    11    2
    23     9    12    1
    24    12    13    1
    25    13    14    1
    26     6     7   ar
    27     7     8   ar
    28    29    24   ar
    29    19    15    1
    30     8     3   ar
    31    14    12    1
    32    22    23    1
@<TRIPOS>MOLECULE
*****
 29 32 0 0 0
SMALL
GASTEIGER

@<TRIPOS>ATOM
      1 C         140.0249  140.5070  161.9877 C.2     1  UNL1        0.1518
      2 N         139.2679  141.7439  161.6042 N.2     1  UNL1       -0.1775
      3 C         140.4894  140.3202  163.4017 C.ar    1  UNL1        0.0237
      4 C         139.5859  139.6723  164.4086 C.ar    1  UNL1        0.0030
      5 C         140.0504  139.4855  165.8225 C.ar    1  UNL1        0.0184
      6 C         141.4185  139.9467  166.2296 C.ar    1  UNL1        0.1056
      7 C         142.3220  140.5947  165.2228 C.ar    1  UNL1        0.0184
      8 C         141.8575  140.7814  163.8088 C.ar    1  UNL1        0.0030
      9 S         141.8830  139.7599  167.6437 S.O2    1  UNL1        0.0070
     10 O         143.1321  139.0954  167.1455 O.2     1  UNL1       -0.1687
     11 O         140.6339  140.4244  168.1418 O.2     1  UNL1       -0.1687
     12 C         142.3475  139.5731  169.0576 C.3     1  UNL1        0.1339
     13 C         142.8762  140.1484  170.3380 C.3     1  UNL1        0.0257
     14 C         142.6234  138.6742  170.2263 C.3     1  UNL1        0.0257
     15 N         138.9754  142.7940  162.6347 N.pl3   1  UNL1       -0.2327
     16 C         137.7474  142.8693  163.4927 C.3     1  UNL1        0.1110
     17 C         137.8727  144.0749  164.3764 C.3     1  UNL1        0.0250
     18 C         139.1781  144.7447  164.0644 C.3     1  UNL1        0.0250
     19 C         139.8596  143.9530  162.9880 C.3     1  UNL1        0.1110
     20 O         139.9832  138.0211  161.2338 O.2     1  UNL1       -0.2681
     21 C         140.3174  139.4570  160.9573 C.2     1  UNL1        0.2702
     22 N         140.9442  139.8428  159.6502 N.am    1  UNL1       -0.2593
     23 H         141.1636  140.7852  159.4687 H       1  UNL1        0.1571
     24 C         141.2368  138.7927  158.6198 C.ar    1  UNL1        0.1666
     25 N         142.5363  138.0636  158.4484 N.ar    1  UNL1       -0.2215
     26 C         142.3838  137.1077  157.3025 C.ar    1  UNL1        0.1188
     27 C         140.9900  137.2460  156.7658 C.ar    1  UNL1        0.1086
     28 CL        140.4073  136.4779  155.6167 Cl      1  UNL1       -0.0734
     29 S         140.2811  138.2875  157.5799 S.2     1  UNL1       -0.0398
@<TRIPOS>BOND
     1    20    21    2
     2    21    22   am
     3    22    24    1
     4    24    25   ar
     5    25    26   ar
     6    26    27   ar
     7    27    28    1
     8    27    29   ar
     9    21     1    1
    10     1     2    2
    11     2    15    1
    12    15    16    1
    13    16    17    1
    14    17    18    1
    15    18    19    1
    16     1     3    1
    17     3     4   ar
    18     4     5   ar
    19     5     6   ar
    20     6     9    1
    21     9    10    2
    22     9    11    2
    23     9    12    1
    24    12    13    1
    25    13    14    1
    26     6     7   ar
    27     7     8   ar
    28    29    24   ar
    29    19    15    1
    30     8     3   ar
    31    14    12    1
    32    22    23    1
@<TRIPOS>MOLECULE
*****
 29 32 0 0 0
SMALL
GASTEIGER

@<TRIPOS>ATOM
      1 C         140.7407  141.8271  162.2119 C.2     1  UNL1        0.1518
      2 N         140.3321  140.4958  161.6543 N.2     1  UNL1       -0.1775
      3 C         141.0260  141.9707  163.6776 C.ar    1  UNL1        0.0237
      4 C         139.9136  142.2960  164.6298 C.ar    1  UNL1        0.0030
      5 C         140.1989  142.4396  166.0954 C.ar    1  UNL1        0.0184
      6 C         141.5966  142.2578  166.6087 C.ar    1  UNL1        0.1056
      7 C         142.7089  141.9325  165.6565 C.ar    1  UNL1        0.0184
      8 C         142.4236  141.7889  164.1909 C.ar    1  UNL1        0.0030
      9 S         141.8819  142.4014  168.0744 S.O2    1  UNL1        0.0070
     10 O         140.4139  142.5480  168.3457 O.2     1  UNL1       -0.1687
     11 O         143.3498  142.2548  167.8031 O.2     1  UNL1       -0.1687
     12 C         142.1671  142.5450  169.5400 C.3     1  UNL1        0.1339
     13 C         141.9741  142.0792  170.9527 C.3     1  UNL1        0.0257
     14 C         142.8541  143.2596  170.6658 C.3     1  UNL1        0.0257
     15 N         140.2088  139.3082  162.5624 N.pl3   1  UNL1       -0.2327
     16 C         138.9788  138.8995  163.3173 C.3     1  UNL1        0.1110
     17 C         139.3037  137.6596  164.0964 C.3     1  UNL1        0.0250
     18 C         140.7346  137.3019  163.8229 C.3     1  UNL1        0.0250
     19 C         141.2940  138.3208  162.8748 C.3     1  UNL1        0.1110
     20 O         140.7870  144.4020  161.8691 O.2     1  UNL1       -0.2681
     21 C         140.8640  143.0146  161.3040 C.2     1  UNL1        0.2702
     22 N         141.0644  142.8149  159.8309 N.am    1  UNL1       -0.2593
     23 H         141.1149  141.9043  159.4600 H       1  UNL1        0.1571
     24 C         141.1877  144.0025  158.9229 C.ar    1  UNL1        0.1666
     25 N         142.4466  144.7659  158.6359 N.ar    1  UNL1       -0.2215
     26 C         142.1107  145.8704  157.6782 C.ar    1  UNL1        0.1188
     27 C         140.6442  145.7896  157.3732 C.ar    1  UNL1        0.1086
     28 CL        139.8821  146.7028  156.4594 Cl      1  UNL1       -0.0734
     29 S         140.0738  144.6351  158.1425 S.2     1  UNL1       -0.0398
@<TRIPOS>BOND
     1    20    21    2
     2    21    22   am
     3    22    24    1
     4    24    25   ar
     5    25    26   ar
     6    26    27   ar
     7    27    28    1
     8    27    29   ar
     9    21     1    1
    10     1     2    2
    11     2    15    1
    12    15    16    1
    13    16    17    1
    14    17    18    1
    15    18    19    1
    16     1     3    1
    17     3     4   ar
    18     4     5   ar
    19     5     6   ar
    20     6     9    1
    21     9    10    2
    22     9    11    2
    23     9    12    1
    24    12    13    1
    25    13    14    1
    26     6     7   ar
    27     7     8   ar
    28    29    24   ar
    29    19    15    1
    30     8     3   ar
    31    14    12    1
    32    22    23    1
@<TRIPOS>MOLECULE
*****
 29 32 0 0 0
SMALL
GASTEIGER

@<TRIPOS>ATOM
      1 C         142.7895  140.9795  161.4831 C.2     1  UNL1        0.1518
      2 N         142.9138  142.4074  161.0406 N.2     1  UNL1       -0.1775
      3 C         142.6837  140.6533  162.9434 C.ar    1  UNL1        0.0237
      4 C         141.3397  140.6176  163.6084 C.ar    1  UNL1        0.0030
      5 C         141.2339  140.2914  165.0686 C.ar    1  UNL1        0.0184
      6 C         142.4721  140.0010  165.8639 C.ar    1  UNL1        0.1056
      7 C         143.8161  140.0368  165.1989 C.ar    1  UNL1        0.0184
      8 C         143.9219  140.3630  163.7387 C.ar    1  UNL1        0.0030
      9 S         142.3663  139.6749  167.3242 S.O2    1  UNL1        0.0070
     10 O         141.2628  140.6805  167.4688 O.2     1  UNL1       -0.1687
     11 O         143.4697  138.6692  167.1796 O.2     1  UNL1       -0.1687
     12 C         142.2604  139.3487  168.7845 C.3     1  UNL1        0.1339
     13 C         141.5825  139.5301  170.1102 C.3     1  UNL1        0.0257
     14 C         142.7549  138.6025  169.9880 C.3     1  UNL1        0.0257
     15 N         142.9322  143.5091  162.0585 N.pl3   1  UNL1       -0.2327
     16 C         141.7339  144.2366  162.5921 C.3     1  UNL1        0.1110
     17 C         142.2133  145.2538  163.5848 C.3     1  UNL1        0.0250
     18 C         143.7079  145.1549  163.6648 C.3     1  UNL1        0.0250
     19 C         144.1522  144.0766  162.7215 C.3     1  UNL1        0.1110
     20 O         142.9754  138.4555  160.8958 O.2     1  UNL1       -0.2681
     21 C         142.7711  139.8779  160.4653 C.2     1  UNL1        0.2702
     22 N         142.5485  140.1985  159.0169 N.am    1  UNL1       -0.2593
     23 H         142.4144  141.1320  158.7343 H       1  UNL1        0.1571
     24 C         142.5301  139.0968  157.9991 C.ar    1  UNL1        0.1666
     25 N         143.6936  138.6460  157.1667 N.ar    1  UNL1       -0.2215
     26 C         143.2276  137.5231  156.2881 C.ar    1  UNL1        0.1188
     27 C         141.7759  137.2799  156.5776 C.ar    1  UNL1        0.1086
     28 CL        140.9078  136.2457  155.9243 Cl      1  UNL1       -0.0734
     29 S         141.3449  138.2525  157.6350 S.2     1  UNL1       -0.0398
@<TRIPOS>BOND
     1    20    21    2
     2    21    22   am
     3    22    24    1
     4    24    25   ar
     5    25    26   ar
     6    26    27   ar
     7    27    28    1
     8    27    29   ar
     9    21     1    1
    10     1     2    2
    11     2    15    1
    12    15    16    1
    13    16    17    1
    14    17    18    1
    15    18    19    1
    16     1     3    1
    17     3     4   ar
    18     4     5   ar
    19     5     6   ar
    20     6     9    1
    21     9    10    2
    22     9    11    2
    23     9    12    1
    24    12    13    1
    25    13    14    1
    26     6     7   ar
    27     7     8   ar
    28    29    24   ar
    29    19    15    1
    30     8     3   ar
    31    14    12    1
    32    22    23    1
@<TRIPOS>MOLECULE
*****
 29 32 0 0 0
SMALL
GASTEIGER

@<TRIPOS>ATOM
      1 C         141.1617  140.3820  164.1243 C.2     1  UNL1        0.1518
      2 N         141.8090  139.0346  163.9990 N.2     1  UNL1       -0.1775
      3 C         141.1648  141.3267  162.9591 C.ar    1  UNL1        0.0237
      4 C         142.2169  142.3912  162.8595 C.ar    1  UNL1        0.0030
      5 C         142.2200  143.3359  161.6944 C.ar    1  UNL1        0.0184
      6 C         141.1710  143.2161  160.6289 C.ar    1  UNL1        0.1056
      7 C         140.1189  142.1517  160.7285 C.ar    1  UNL1        0.0184
      8 C         140.1158  141.2070  161.8936 C.ar    1  UNL1        0.0030
      9 S         141.1741  144.1609  159.4638 S.O2    1  UNL1        0.0070
     10 O         140.5676  143.0961  158.5988 O.2     1  UNL1       -0.1687
     11 O         141.7806  145.2257  160.3288 O.2     1  UNL1       -0.1687
     12 C         141.1772  145.1056  158.2987 C.3     1  UNL1        0.1339
     13 C         140.4567  146.0787  157.4134 C.3     1  UNL1        0.0257
     14 C         141.9032  145.7687  157.1659 C.3     1  UNL1        0.0257
     15 N         142.4594  138.6321  162.7087 N.pl3   1  UNL1       -0.2327
     16 C         143.8700  138.9368  162.2997 C.3     1  UNL1        0.1110
     17 C         144.0958  138.3472  160.9391 C.3     1  UNL1        0.0250
     18 C         142.8247  137.6780  160.5071 C.3     1  UNL1        0.0250
     19 C         141.8134  137.8541  161.6008 C.3     1  UNL1        0.1110
     20 O         139.3941  141.7855  165.4110 O.2     1  UNL1       -0.2681
     21 C         140.5113  140.7846  165.4145 C.2     1  UNL1        0.2702
     22 N         140.9780  140.1862  166.7084 N.am    1  UNL1       -0.2593
     23 H         141.7113  139.5292  166.7108 H       1  UNL1        0.1571
     24 C         140.3276  140.5888  167.9987 C.ar    1  UNL1        0.1666
     25 N         139.3816  139.7520  168.8079 N.ar    1  UNL1       -0.2215
     26 C         138.9783  140.5449  170.0156 C.ar    1  UNL1        0.1188
     27 C         139.6751  141.8718  169.9529 C.ar    1  UNL1        0.1086
     28 CL        139.5585  142.9773  170.9599 Cl      1  UNL1       -0.0734
     29 S         140.5090  141.8989  168.7064 S.2     1  UNL1       -0.0398
@<TRIPOS>BOND
     1    20    21    2
     2    21    22   am
     3    22    24    1
     4    24    25   ar
     5    25    26   ar
     6    26    27   ar
     7    27    28    1
     8    27    29   ar
     9    21     1    1
    10     1     2    2
    11     2    15    1
    12    15    16    1
    13    16    17    1
    14    17    18    1
    15    18    19    1
    16     1     3    1
    17     3     4   ar
    18     4     5   ar
    19     5     6   ar
    20     6     9    1
    21     9    10    2
    22     9    11    2
    23     9    12    1
    24    12    13    1
    25    13    14    1
    26     6     7   ar
    27     7     8   ar
    28    29    24   ar
    29    19    15    1
    30     8     3   ar
    31    14    12    1
    32    22    23    1
@<TRIPOS>MOLECULE
*****
 29 32 0 0 0
SMALL
GASTEIGER

@<TRIPOS>ATOM
      1 C         139.6070  143.0174  159.7052 C.2     1  UNL1        0.1518
      2 N         140.5176  144.2049  159.8086 N.2     1  UNL1       -0.1775
      3 C         139.3183  142.1857  160.9197 C.ar    1  UNL1        0.0237
      4 C         138.0830  142.4451  161.7300 C.ar    1  UNL1        0.0030
      5 C         137.7943  141.6134  162.9444 C.ar    1  UNL1        0.0184
      6 C         138.7409  140.5222  163.3485 C.ar    1  UNL1        0.1056
      7 C         139.9762  140.2628  162.5382 C.ar    1  UNL1        0.0184
      8 C         140.2649  141.0945  161.3238 C.ar    1  UNL1        0.0030
      9 S         138.4521  139.6905  164.5630 S.O2    1  UNL1        0.0070
     10 O         138.4687  138.4512  163.7182 O.2     1  UNL1       -0.1687
     11 O         138.4356  140.9298  165.4079 O.2     1  UNL1       -0.1687
     12 C         138.1634  138.8588  165.7774 C.3     1  UNL1        0.1339
     13 C         137.7282  138.7579  167.2093 C.3     1  UNL1        0.0257
     14 C         138.0985  137.5191  166.4490 C.3     1  UNL1        0.0257
     15 N         141.1393  144.5607  161.1265 N.pl3   1  UNL1       -0.2327
     16 C         140.5207  145.4182  162.1904 C.3     1  UNL1        0.1110
     17 C         141.4880  145.5089  163.3333 C.3     1  UNL1        0.0250
     18 C         142.7045  144.7074  162.9757 C.3     1  UNL1        0.0250
     19 C         142.4890  144.1214  161.6119 C.3     1  UNL1        0.1110
     20 O         138.9384  143.6747  157.2822 O.2     1  UNL1       -0.2681
     21 C         138.9852  142.6616  158.3873 C.2     1  UNL1        0.2702
     22 N         138.4102  141.2925  158.1746 N.am    1  UNL1       -0.2593
     23 H         138.4410  140.6275  158.8999 H       1  UNL1        0.1571
     24 C         137.7885  140.9367  156.8567 C.ar    1  UNL1        0.1666
     25 N         138.4867  140.2863  155.6994 N.ar    1  UNL1       -0.2215
     26 C         137.4891  140.1164  154.5922 C.ar    1  UNL1        0.1188
     27 C         136.1742  140.6619  155.0653 C.ar    1  UNL1        0.1086
     28 CL        134.8984  140.6946  154.2772 Cl      1  UNL1       -0.0734
     29 S         136.3593  141.1688  156.4648 S.2     1  UNL1       -0.0398
@<TRIPOS>BOND
     1    20    21    2
     2    21    22   am
     3    22    24    1
     4    24    25   ar
     5    25    26   ar
     6    26    27   ar
     7    27    28    1
     8    27    29   ar
     9    21     1    1
    10     1     2    2
    11     2    15    1
    12    15    16    1
    13    16    17    1
    14    17    18    1
    15    18    19    1
    16     1     3    1
    17     3     4   ar
    18     4     5   ar
    19     5     6   ar
    20     6     9    1
    21     9    10    2
    22     9    11    2
    23     9    12    1
    24    12    13    1
    25    13    14    1
    26     6     7   ar
    27     7     8   ar
    28    29    24   ar
    29    19    15    1
    30     8     3   ar
    31    14    12    1
    32    22    23    1
