@<TRIPOS>MOLECULE
*****
 39 42 0 0 0
SMALL
GASTEIGER

@<TRIPOS>ATOM
      1 C         142.0200  138.2261  158.7676 C.3     1  UNL1        0.1693
      2 C         140.7965  138.9606  159.2298 C.3     1  UNL1        0.0651
      3 C         140.5098  139.0918  160.6963 C.3     1  UNL1        0.0987
      4 N         141.4464  138.4885  161.7005 N.am    1  UNL1       -0.2637
      5 C         141.1596  138.6197  163.1670 C.2     1  UNL1        0.3077
      6 O         142.0963  138.0164  164.1713 O.2     1  UNL1       -0.2522
      7 N         139.9362  139.3543  163.6292 N.am    1  UNL1       -0.2681
      8 C         142.6699  137.7540  161.2384 C.3     1  UNL1        0.0987
      9 C         142.9567  137.6227  159.7719 C.3     1  UNL1        0.0651
     10 H         139.3214  139.7503  162.9700 H       1  UNL1        0.1564
     11 C         139.6494  139.4855  165.0957 C.ar    1  UNL1        0.0518
     12 C         140.5684  140.2852  165.9709 C.ar    1  UNL1        0.0178
     13 C         140.2817  140.4164  167.4374 C.ar    1  UNL1        0.0385
     14 C         139.0761  139.7480  168.0286 C.ar    1  UNL1        0.1469
     15 C         138.1571  138.9483  167.1533 C.ar    1  UNL1        0.0385
     16 C         138.4438  138.8171  165.6869 C.ar    1  UNL1        0.0178
     17 O         138.7893  139.8792  169.4951 O.3     1  UNL1       -0.4045
     18 C         139.7614  140.5909  170.3886 C.3     1  UNL1        0.5753
     19 F         140.7335  141.3027  171.2822 F       1  UNL1       -0.1328
     20 F         138.9456  141.8447  170.2775 F       1  UNL1       -0.1328
     21 F         140.5773  139.3371  170.4998 F       1  UNL1       -0.1328
     22 O         142.3067  138.0949  157.3011 O.3     1  UNL1       -0.4789
     23 C         142.0162  134.0734  155.3027 C.ar    1  UNL1        0.0034
     24 C         143.2335  134.4260  156.1049 C.ar    1  UNL1        0.0032
     25 C         143.3304  135.7665  156.7711 C.ar    1  UNL1        0.0370
     26 C         142.2098  136.7543  156.6350 C.ar    1  UNL1        0.1427
     27 C         140.9925  136.4018  155.8327 C.ar    1  UNL1        0.0870
     28 C         140.8956  135.0613  155.1666 C.ar    1  UNL1        0.0077
     29 C         140.3252  129.2701  153.9065 C.3     1  UNL1        0.1538
     30 N         141.1420  130.5251  153.9948 N.ar    1  UNL1       -0.2473
     31 C         140.8460  131.7103  154.8652 C.ar    1  UNL1        0.0967
     32 C         141.9193  132.7329  154.6365 C.ar    1  UNL1        0.0396
     33 C         142.8786  132.1798  153.6248 C.ar    1  UNL1        0.1216
     34 N         142.3982  130.8152  153.2281 N.ar    1  UNL1       -0.1676
     35 C         139.8719  137.3896  155.6966 C.2     1  UNL1        0.2457
     36 N         140.1751  138.8420  155.4760 N.am    1  UNL1       -0.3252
     37 O         138.4482  136.9252  155.7812 O.2     1  UNL1       -0.2703
     38 H         141.1096  139.1468  155.4204 H       1  UNL1        0.1453
     39 H         139.4397  139.4903  155.3866 H       1  UNL1        0.1453
@<TRIPOS>BOND
     1    29    30    1
     2    30    31   ar
     3    31    32   ar
     4    32    23    1
     5    23    24   ar
     6    24    25   ar
     7    25    26   ar
     8    26    22    1
     9    22     1    1
    10     1     2    1
    11     2     3    1
    12     3     4    1
    13     4     5   am
    14     5     6    2
    15     5     7   am
    16     7    11    1
    17    11    12   ar
    18    12    13   ar
    19    13    14   ar
    20    14    17    1
    21    17    18    1
    22    18    19    1
    23    18    20    1
    24    18    21    1
    25    14    15   ar
    26    15    16   ar
    27     4     8    1
    28     8     9    1
    29    26    27   ar
    30    27    35    1
    31    35    36   am
    32    35    37    2
    33    27    28   ar
    34    32    33   ar
    35    33    34   ar
    36    34    30   ar
    37    28    23   ar
    38     9     1    1
    39    16    11   ar
    40     7    10    1
    41    36    38    1
    42    36    39    1
@<TRIPOS>MOLECULE
*****
 39 42 0 0 0
SMALL
GASTEIGER

@<TRIPOS>ATOM
      1 C         139.4386  142.1521  158.2170 C.3     1  UNL1        0.1693
      2 C         138.3597  142.4752  159.2077 C.3     1  UNL1        0.0651
      3 C         138.5046  142.0512  160.6393 C.3     1  UNL1        0.0987
      4 N         139.7283  141.3041  161.0801 N.am    1  UNL1       -0.2637
      5 C         139.8730  140.8801  162.5116 C.2     1  UNL1        0.3077
      6 O         141.0968  140.1329  162.9524 O.2     1  UNL1       -0.2522
      7 N         138.7941  141.2032  163.5023 N.am    1  UNL1       -0.2681
      8 C         140.8072  140.9809  160.0894 C.3     1  UNL1        0.0987
      9 C         140.6624  141.4049  158.6579 C.3     1  UNL1        0.0651
     10 H         137.9910  141.6936  163.2130 H       1  UNL1        0.1564
     11 C         138.9390  140.7792  164.9339 C.ar    1  UNL1        0.0518
     12 C         139.8300  141.5539  165.8590 C.ar    1  UNL1        0.0178
     13 C         139.9749  141.1299  167.2905 C.ar    1  UNL1        0.0385
     14 C         139.2287  139.9313  167.7969 C.ar    1  UNL1        0.1469
     15 C         138.3377  139.1566  166.8717 C.ar    1  UNL1        0.0385
     16 C         138.1928  139.5806  165.4402 C.ar    1  UNL1        0.0178
     17 O         139.3736  139.5073  169.2284 O.3     1  UNL1       -0.4045
     18 C         140.0748  140.4010  170.2080 C.3     1  UNL1        0.5753
     19 F         140.7759  141.2947  171.1877 F       1  UNL1       -0.1328
     20 F         141.3004  139.5413  170.1150 F       1  UNL1       -0.1328
     21 F         138.8491  141.2606  170.3011 F       1  UNL1       -0.1328
     22 O         139.2938  142.5761  156.7855 O.3     1  UNL1       -0.4789
     23 C         139.1788  146.9502  155.7351 C.ar    1  UNL1        0.0034
     24 C         140.2986  146.4096  156.5739 C.ar    1  UNL1        0.0032
     25 C         140.3369  144.9515  156.9240 C.ar    1  UNL1        0.0370
     26 C         139.2555  144.0342  156.4353 C.ar    1  UNL1        0.1427
     27 C         138.1357  144.5748  155.5965 C.ar    1  UNL1        0.0870
     28 C         138.0973  146.0328  155.2464 C.ar    1  UNL1        0.0077
     29 C         139.9152  151.5300  153.2123 C.3     1  UNL1        0.1538
     30 N         139.4790  150.5134  154.2253 N.ar    1  UNL1       -0.2473
     31 C         139.7611  149.0410  154.1747 C.ar    1  UNL1        0.0967
     32 C         139.1405  148.4083  155.3849 C.ar    1  UNL1        0.0396
     33 C         138.4748  149.4896  156.1834 C.ar    1  UNL1        0.1216
     34 N         138.6840  150.7906  155.4668 N.ar    1  UNL1       -0.1676
     35 C         137.0542  143.6575  155.1078 C.2     1  UNL1        0.2457
     36 N         136.2859  142.8168  156.0840 N.am    1  UNL1       -0.3252
     37 O         136.7409  143.5808  153.6429 O.2     1  UNL1       -0.2703
     38 H         136.4915  142.8671  157.0455 H       1  UNL1        0.1453
     39 H         135.5761  142.2147  155.7633 H       1  UNL1        0.1453
@<TRIPOS>BOND
     1    29    30    1
     2    30    31   ar
     3    31    32   ar
     4    32    23    1
     5    23    24   ar
     6    24    25   ar
     7    25    26   ar
     8    26    22    1
     9    22     1    1
    10     1     2    1
    11     2     3    1
    12     3     4    1
    13     4     5   am
    14     5     6    2
    15     5     7   am
    16     7    11    1
    17    11    12   ar
    18    12    13   ar
    19    13    14   ar
    20    14    17    1
    21    17    18    1
    22    18    19    1
    23    18    20    1
    24    18    21    1
    25    14    15   ar
    26    15    16   ar
    27     4     8    1
    28     8     9    1
    29    26    27   ar
    30    27    35    1
    31    35    36   am
    32    35    37    2
    33    27    28   ar
    34    32    33   ar
    35    33    34   ar
    36    34    30   ar
    37    28    23   ar
    38     9     1    1
    39    16    11   ar
    40     7    10    1
    41    36    38    1
    42    36    39    1
@<TRIPOS>MOLECULE
*****
 39 42 0 0 0
SMALL
GASTEIGER

@<TRIPOS>ATOM
      1 C         139.7504  142.3351  158.3186 C.3     1  UNL1        0.1693
      2 C         140.7751  141.5903  159.1219 C.3     1  UNL1        0.0651
      3 C         140.5275  141.3047  160.5735 C.3     1  UNL1        0.0987
      4 N         139.2552  141.7639  161.2218 N.am    1  UNL1       -0.2637
      5 C         139.0076  141.4783  162.6734 C.2     1  UNL1        0.3077
      6 O         137.7353  141.9376  163.3218 O.2     1  UNL1       -0.2522
      7 N         140.0323  140.7335  163.4767 N.am    1  UNL1       -0.2681
      8 C         138.2305  142.5087  160.4186 C.3     1  UNL1        0.0987
      9 C         138.4781  142.7943  158.9670 C.3     1  UNL1        0.0651
     10 H         140.8674  140.4321  163.0512 H       1  UNL1        0.1564
     11 C         139.7847  140.4480  164.9283 C.ar    1  UNL1        0.0518
     12 C         140.5027  141.2389  165.9814 C.ar    1  UNL1        0.0178
     13 C         140.2551  140.9533  167.4329 C.ar    1  UNL1        0.0385
     14 C         139.2895  139.8769  167.8315 C.ar    1  UNL1        0.1469
     15 C         138.5715  139.0860  166.7784 C.ar    1  UNL1        0.0385
     16 C         138.8191  139.3716  165.3268 C.ar    1  UNL1        0.0178
     17 O         139.0419  139.5913  169.2831 O.3     1  UNL1       -0.4045
     18 C         139.8014  140.3432  170.3356 C.3     1  UNL1        0.5753
     19 F         140.5610  141.0951  171.3881 F       1  UNL1       -0.1328
     20 F         140.8622  139.2828  170.3276 F       1  UNL1       -0.1328
     21 F         138.7406  141.4037  170.3436 F       1  UNL1       -0.1328
     22 O         139.9980  142.6207  156.8670 O.3     1  UNL1       -0.4789
     23 C         139.6275  146.8249  155.3059 C.ar    1  UNL1        0.0034
     24 C         138.4880  145.8625  155.1465 C.ar    1  UNL1        0.0032
     25 C         138.6115  144.4612  155.6669 C.ar    1  UNL1        0.0370
     26 C         139.8745  144.0221  156.3467 C.ar    1  UNL1        0.1427
     27 C         141.0140  144.9845  156.5061 C.ar    1  UNL1        0.0870
     28 C         140.8905  146.3859  155.9857 C.ar    1  UNL1        0.0077
     29 C         138.4865  151.9683  154.9529 C.3     1  UNL1        0.1538
     30 N         138.9795  150.5905  154.6233 N.ar    1  UNL1       -0.2473
     31 C         138.8903  149.3860  155.5127 C.ar    1  UNL1        0.0967
     32 C         139.5040  148.2264  154.7855 C.ar    1  UNL1        0.0396
     33 C         139.9724  148.7142  153.4467 C.ar    1  UNL1        0.1216
     34 N         139.6483  150.1753  153.3464 N.ar    1  UNL1       -0.1676
     35 C         142.2770  144.5455  157.1858 C.2     1  UNL1        0.2457
     36 N         143.3200  143.7911  156.4158 N.am    1  UNL1       -0.3252
     37 O         142.4970  144.8608  158.6357 O.2     1  UNL1       -0.2703
     38 H         143.1756  143.5842  155.4641 H       1  UNL1        0.1453
     39 H         144.1489  143.5030  156.8619 H       1  UNL1        0.1453
@<TRIPOS>BOND
     1    29    30    1
     2    30    31   ar
     3    31    32   ar
     4    32    23    1
     5    23    24   ar
     6    24    25   ar
     7    25    26   ar
     8    26    22    1
     9    22     1    1
    10     1     2    1
    11     2     3    1
    12     3     4    1
    13     4     5   am
    14     5     6    2
    15     5     7   am
    16     7    11    1
    17    11    12   ar
    18    12    13   ar
    19    13    14   ar
    20    14    17    1
    21    17    18    1
    22    18    19    1
    23    18    20    1
    24    18    21    1
    25    14    15   ar
    26    15    16   ar
    27     4     8    1
    28     8     9    1
    29    26    27   ar
    30    27    35    1
    31    35    36   am
    32    35    37    2
    33    27    28   ar
    34    32    33   ar
    35    33    34   ar
    36    34    30   ar
    37    28    23   ar
    38     9     1    1
    39    16    11   ar
    40     7    10    1
    41    36    38    1
    42    36    39    1
@<TRIPOS>MOLECULE
*****
 39 42 0 0 0
SMALL
GASTEIGER

@<TRIPOS>ATOM
      1 C         142.2076  138.5247  161.9450 C.3     1  UNL1        0.1693
      2 C         142.7358  137.8130  160.7348 C.3     1  UNL1        0.0651
      3 C         143.3383  138.5973  159.6070 C.3     1  UNL1        0.0987
      4 N         143.4125  140.0932  159.6893 N.am    1  UNL1       -0.2637
      5 C         144.0150  140.8774  158.5615 C.2     1  UNL1        0.3077
      6 O         144.0892  142.3734  158.6438 O.2     1  UNL1       -0.2522
      7 N         144.5432  140.1658  157.3513 N.am    1  UNL1       -0.2681
      8 C         142.8843  140.8049  160.8995 C.3     1  UNL1        0.0987
      9 C         142.2818  140.0206  162.0273 C.3     1  UNL1        0.0651
     10 H         144.4945  139.1840  157.2973 H       1  UNL1        0.1564
     11 C         145.1457  140.9501  156.2235 C.ar    1  UNL1        0.0518
     12 C         146.4524  141.6604  156.4180 C.ar    1  UNL1        0.0178
     13 C         147.0549  142.4447  155.2903 C.ar    1  UNL1        0.0385
     14 C         146.3507  142.5186  153.9680 C.ar    1  UNL1        0.1469
     15 C         145.0439  141.8083  153.7735 C.ar    1  UNL1        0.0385
     16 C         144.4414  141.0241  154.9012 C.ar    1  UNL1        0.0178
     17 O         146.9531  143.3030  152.8402 O.3     1  UNL1       -0.4045
     18 C         148.3484  143.8402  152.9616 C.3     1  UNL1        0.5753
     19 F         149.7436  144.3774  153.0830 F       1  UNL1       -0.1328
     20 F         147.8006  145.1591  153.4202 F       1  UNL1       -0.1328
     21 F         148.8961  142.5212  152.5030 F       1  UNL1       -0.1328
     22 O         141.6051  137.7405  163.0728 O.3     1  UNL1       -0.4789
     23 C         140.3899  139.8295  166.8687 C.ar    1  UNL1        0.0034
     24 C         141.7943  139.3289  166.7047 C.ar    1  UNL1        0.0032
     25 C         142.1994  138.6326  165.4394 C.ar    1  UNL1        0.0370
     26 C         141.2000  138.4368  164.3381 C.ar    1  UNL1        0.1427
     27 C         139.7955  138.9374  164.5021 C.ar    1  UNL1        0.0870
     28 C         139.3905  139.6337  165.7674 C.ar    1  UNL1        0.0077
     29 C         139.9486  143.4466  170.6901 C.3     1  UNL1        0.1538
     30 N         139.7820  142.1885  169.8905 N.ar    1  UNL1       -0.2473
     31 C         140.4271  141.8915  168.5694 C.ar    1  UNL1        0.0967
     32 C         139.9848  140.5258  168.1341 C.ar    1  UNL1        0.0396
     33 C         139.0662  139.9789  169.1862 C.ar    1  UNL1        0.1216
     34 N         138.9409  141.0064  170.2718 N.ar    1  UNL1       -0.1676
     35 C         138.7961  138.7416  163.4008 C.2     1  UNL1        0.2457
     36 N         138.5955  137.3805  162.8033 N.am    1  UNL1       -0.3252
     37 O         137.9974  139.9069  162.8970 O.2     1  UNL1       -0.2703
     38 H         139.1198  136.6156  163.1340 H       1  UNL1        0.1453
     39 H         137.9396  137.2520  162.0805 H       1  UNL1        0.1453
@<TRIPOS>BOND
     1    29    30    1
     2    30    31   ar
     3    31    32   ar
     4    32    23    1
     5    23    24   ar
     6    24    25   ar
     7    25    26   ar
     8    26    22    1
     9    22     1    1
    10     1     2    1
    11     2     3    1
    12     3     4    1
    13     4     5   am
    14     5     6    2
    15     5     7   am
    16     7    11    1
    17    11    12   ar
    18    12    13   ar
    19    13    14   ar
    20    14    17    1
    21    17    18    1
    22    18    19    1
    23    18    20    1
    24    18    21    1
    25    14    15   ar
    26    15    16   ar
    27     4     8    1
    28     8     9    1
    29    26    27   ar
    30    27    35    1
    31    35    36   am
    32    35    37    2
    33    27    28   ar
    34    32    33   ar
    35    33    34   ar
    36    34    30   ar
    37    28    23   ar
    38     9     1    1
    39    16    11   ar
    40     7    10    1
    41    36    38    1
    42    36    39    1
@<TRIPOS>MOLECULE
*****
 39 42 0 0 0
SMALL
GASTEIGER

@<TRIPOS>ATOM
      1 C         142.0328  138.7158  158.6343 C.3     1  UNL1        0.1693
      2 C         143.2402  139.1724  159.3983 C.3     1  UNL1        0.0651
      3 C         143.1365  139.4503  160.8687 C.3     1  UNL1        0.0987
      4 N         141.8254  139.2715  161.5751 N.am    1  UNL1       -0.2637
      5 C         141.7217  139.5494  163.0455 C.2     1  UNL1        0.3077
      6 O         140.4105  139.3706  163.7519 O.2     1  UNL1       -0.2522
      7 N         142.9291  140.0060  163.8094 N.am    1  UNL1       -0.2681
      8 C         140.6180  138.8149  160.8111 C.3     1  UNL1        0.0987
      9 C         140.7217  138.5370  159.3408 C.3     1  UNL1        0.0651
     10 H         143.7896  140.1234  163.3458 H       1  UNL1        0.1564
     11 C         142.8253  140.2839  165.2799 C.ar    1  UNL1        0.0518
     12 C         142.8001  139.1470  166.2580 C.ar    1  UNL1        0.0178
     13 C         142.6963  139.4248  167.7284 C.ar    1  UNL1        0.0385
     14 C         142.6178  140.8395  168.2206 C.ar    1  UNL1        0.1469
     15 C         142.6431  141.9764  167.2425 C.ar    1  UNL1        0.0385
     16 C         142.7469  141.6986  165.7721 C.ar    1  UNL1        0.0178
     17 O         142.5141  141.1174  169.6910 O.3     1  UNL1       -0.4045
     18 C         142.8981  142.4640  170.2287 C.3     1  UNL1        0.5753
     19 F         143.2821  143.8107  170.7664 F       1  UNL1       -0.1328
     20 F         144.3471  142.1288  170.0334 F       1  UNL1       -0.1328
     21 F         141.4491  142.7992  170.4241 F       1  UNL1       -0.1328
     22 O         142.1365  138.4379  157.1640 O.3     1  UNL1       -0.4789
     23 C         142.2031  134.1916  155.6758 C.ar    1  UNL1        0.0034
     24 C         143.3446  134.7174  156.4946 C.ar    1  UNL1        0.0032
     25 C         143.3224  136.1328  156.9906 C.ar    1  UNL1        0.0370
     26 C         142.1587  137.0224  156.6679 C.ar    1  UNL1        0.1427
     27 C         141.0172  136.4967  155.8491 C.ar    1  UNL1        0.0870
     28 C         141.0394  135.0813  155.3531 C.ar    1  UNL1        0.0077
     29 C         143.9089  129.4718  154.0342 C.3     1  UNL1        0.1538
     30 N         143.0094  130.6067  154.4252 N.ar    1  UNL1       -0.2473
     31 C         143.4517  131.9582  154.9024 C.ar    1  UNL1        0.0967
     32 C         142.2253  132.7762  155.1797 C.ar    1  UNL1        0.0396
     33 C         141.0250  131.9302  154.8739 C.ar    1  UNL1        0.1216
     34 N         141.5095  130.5894  154.4075 N.ar    1  UNL1       -0.1676
     35 C         139.8534  137.3864  155.5263 C.2     1  UNL1        0.2457
     36 N         140.0887  138.7419  154.9287 N.am    1  UNL1       -0.3252
     37 O         138.4544  136.9206  155.8012 O.2     1  UNL1       -0.2703
     38 H         141.0070  139.0477  154.7483 H       1  UNL1        0.1453
     39 H         139.3249  139.3258  154.7169 H       1  UNL1        0.1453
@<TRIPOS>BOND
     1    29    30    1
     2    30    31   ar
     3    31    32   ar
     4    32    23    1
     5    23    24   ar
     6    24    25   ar
     7    25    26   ar
     8    26    22    1
     9    22     1    1
    10     1     2    1
    11     2     3    1
    12     3     4    1
    13     4     5   am
    14     5     6    2
    15     5     7   am
    16     7    11    1
    17    11    12   ar
    18    12    13   ar
    19    13    14   ar
    20    14    17    1
    21    17    18    1
    22    18    19    1
    23    18    20    1
    24    18    21    1
    25    14    15   ar
    26    15    16   ar
    27     4     8    1
    28     8     9    1
    29    26    27   ar
    30    27    35    1
    31    35    36   am
    32    35    37    2
    33    27    28   ar
    34    32    33   ar
    35    33    34   ar
    36    34    30   ar
    37    28    23   ar
    38     9     1    1
    39    16    11   ar
    40     7    10    1
    41    36    38    1
    42    36    39    1
@<TRIPOS>MOLECULE
*****
 39 42 0 0 0
SMALL
GASTEIGER

@<TRIPOS>ATOM
      1 C         141.0824  142.8522  160.6718 C.3     1  UNL1        0.1693
      2 C         141.8476  143.9249  159.9549 C.3     1  UNL1        0.0651
      3 C         142.9564  143.5545  159.0150 C.3     1  UNL1        0.0987
      4 N         143.3000  142.1116  158.7919 N.am    1  UNL1       -0.2637
      5 C         144.4087  141.7413  157.8520 C.2     1  UNL1        0.3077
      6 O         144.7524  140.2983  157.6289 O.2     1  UNL1       -0.2522
      7 N         145.1739  142.8140  157.1352 N.am    1  UNL1       -0.2681
      8 C         142.5348  141.0389  159.5088 C.3     1  UNL1        0.0987
      9 C         141.4260  141.4092  160.4487 C.3     1  UNL1        0.0651
     10 H         144.9484  143.7610  157.2816 H       1  UNL1        0.1564
     11 C         146.2828  142.4436  156.1952 C.ar    1  UNL1        0.0518
     12 C         145.9721  142.0917  154.7705 C.ar    1  UNL1        0.0178
     13 C         147.0808  141.7214  153.8306 C.ar    1  UNL1        0.0385
     14 C         148.5002  141.7030  154.3153 C.ar    1  UNL1        0.1469
     15 C         148.8108  142.0549  155.7400 C.ar    1  UNL1        0.0385
     16 C         147.7021  142.4252  156.6799 C.ar    1  UNL1        0.0178
     17 O         149.6090  141.3326  153.3754 O.3     1  UNL1       -0.4045
     18 C         150.8555  142.1653  153.3209 C.3     1  UNL1        0.5753
     19 F         152.1020  142.9979  153.2664 F       1  UNL1       -0.1328
     20 F         150.0393  143.3616  152.9301 F       1  UNL1       -0.1328
     21 F         151.6717  140.9690  153.7117 F       1  UNL1       -0.1328
     22 O         139.9736  143.2225  161.6117 O.3     1  UNL1       -0.4789
     23 C         140.0796  141.8114  165.8834 C.ar    1  UNL1        0.0034
     24 C         139.3199  141.0288  164.8537 C.ar    1  UNL1        0.0032
     25 C         139.2846  141.4992  163.4298 C.ar    1  UNL1        0.0370
     26 C         140.0090  142.7521  163.0357 C.ar    1  UNL1        0.1427
     27 C         140.7687  143.5347  164.0654 C.ar    1  UNL1        0.0870
     28 C         140.8040  143.0644  165.4892 C.ar    1  UNL1        0.0077
     29 C         140.8762  141.6510  171.1008 C.3     1  UNL1        0.1538
     30 N         140.4812  141.2674  169.7055 N.ar    1  UNL1       -0.2473
     31 C         140.6402  142.1164  168.4792 C.ar    1  UNL1        0.0967
     32 C         140.1150  141.3411  167.3074 C.ar    1  UNL1        0.0396
     33 C         139.6314  140.0129  167.8095 C.ar    1  UNL1        0.1216
     34 N         139.8577  139.9673  169.2916 N.ar    1  UNL1       -0.1676
     35 C         141.4930  144.7877  163.6712 C.2     1  UNL1        0.2457
     36 N         140.7517  145.9002  162.9910 N.am    1  UNL1       -0.3252
     37 O         142.9588  144.9282  163.9572 O.2     1  UNL1       -0.2703
     38 H         139.7897  145.8080  162.8032 H       1  UNL1        0.1453
     39 H         141.2271  146.7225  162.7323 H       1  UNL1        0.1453
@<TRIPOS>BOND
     1    29    30    1
     2    30    31   ar
     3    31    32   ar
     4    32    23    1
     5    23    24   ar
     6    24    25   ar
     7    25    26   ar
     8    26    22    1
     9    22     1    1
    10     1     2    1
    11     2     3    1
    12     3     4    1
    13     4     5   am
    14     5     6    2
    15     5     7   am
    16     7    11    1
    17    11    12   ar
    18    12    13   ar
    19    13    14   ar
    20    14    17    1
    21    17    18    1
    22    18    19    1
    23    18    20    1
    24    18    21    1
    25    14    15   ar
    26    15    16   ar
    27     4     8    1
    28     8     9    1
    29    26    27   ar
    30    27    35    1
    31    35    36   am
    32    35    37    2
    33    27    28   ar
    34    32    33   ar
    35    33    34   ar
    36    34    30   ar
    37    28    23   ar
    38     9     1    1
    39    16    11   ar
    40     7    10    1
    41    36    38    1
    42    36    39    1
@<TRIPOS>MOLECULE
*****
 39 42 0 0 0
SMALL
GASTEIGER

@<TRIPOS>ATOM
      1 C         141.1402  138.6780  158.3782 C.3     1  UNL1        0.1693
      2 C         142.2066  139.2582  159.2593 C.3     1  UNL1        0.0651
      3 C         141.8938  139.6091  160.6837 C.3     1  UNL1        0.0987
      4 N         140.5146  139.3798  161.2271 N.am    1  UNL1       -0.2637
      5 C         140.2019  139.7307  162.6516 C.2     1  UNL1        0.3077
      6 O         138.8227  139.5014  163.1950 O.2     1  UNL1       -0.2522
      7 N         141.2683  140.3109  163.5326 N.am    1  UNL1       -0.2681
      8 C         139.4483  138.7996  160.3461 C.3     1  UNL1        0.0987
      9 C         139.7610  138.4487  158.9217 C.3     1  UNL1        0.0651
     10 H         142.1735  140.4614  163.1759 H       1  UNL1        0.1564
     11 C         140.9554  140.6618  164.9571 C.ar    1  UNL1        0.0518
     12 C         141.0261  139.6078  166.0220 C.ar    1  UNL1        0.0178
     13 C         140.7133  139.9586  167.4464 C.ar    1  UNL1        0.0385
     14 C         140.3298  141.3634  167.8059 C.ar    1  UNL1        0.1469
     15 C         140.2591  142.4175  166.7410 C.ar    1  UNL1        0.0385
     16 C         140.5719  142.0666  165.3166 C.ar    1  UNL1        0.0178
     17 O         140.0170  141.7143  169.2304 O.3     1  UNL1       -0.4045
     18 C         139.8919  140.6304  170.2597 C.3     1  UNL1        0.5753
     19 F         139.7669  139.5465  171.2890 F       1  UNL1       -0.1328
     20 F         141.3311  140.8221  170.6364 F       1  UNL1       -0.1328
     21 F         138.4527  140.4387  169.8829 F       1  UNL1       -0.1328
     22 O         141.4530  138.3271  156.9538 O.3     1  UNL1       -0.4789
     23 C         142.4095  134.0727  155.8426 C.ar    1  UNL1        0.0034
     24 C         143.2751  134.8038  156.8255 C.ar    1  UNL1        0.0032
     25 C         142.9562  136.2219  157.1959 C.ar    1  UNL1        0.0370
     26 C         141.7718  136.9089  156.5834 C.ar    1  UNL1        0.1427
     27 C         140.9063  136.1778  155.6004 C.ar    1  UNL1        0.0870
     28 C         141.2251  134.7596  155.2300 C.ar    1  UNL1        0.0077
     29 C         143.4372  128.9043  156.1786 C.3     1  UNL1        0.1538
     30 N         143.2007  130.2788  155.6266 N.ar    1  UNL1       -0.2473
     31 C         142.8863  131.5081  156.4266 C.ar    1  UNL1        0.0967
     32 C         142.7284  132.6545  155.4721 C.ar    1  UNL1        0.0396
     33 C         142.9453  132.1337  154.0823 C.ar    1  UNL1        0.1216
     34 N         143.2372  130.6655  154.1777 N.ar    1  UNL1       -0.1676
     35 C         139.7218  136.8648  154.9879 C.2     1  UNL1        0.2457
     36 N         139.8237  137.4497  153.6105 N.am    1  UNL1       -0.3252
     37 O         138.4356  136.9667  155.7528 O.2     1  UNL1       -0.2703
     38 H         140.6679  137.3828  153.1084 H       1  UNL1        0.1453
     39 H         139.0463  137.9006  153.2084 H       1  UNL1        0.1453
@<TRIPOS>BOND
     1    29    30    1
     2    30    31   ar
     3    31    32   ar
     4    32    23    1
     5    23    24   ar
     6    24    25   ar
     7    25    26   ar
     8    26    22    1
     9    22     1    1
    10     1     2    1
    11     2     3    1
    12     3     4    1
    13     4     5   am
    14     5     6    2
    15     5     7   am
    16     7    11    1
    17    11    12   ar
    18    12    13   ar
    19    13    14   ar
    20    14    17    1
    21    17    18    1
    22    18    19    1
    23    18    20    1
    24    18    21    1
    25    14    15   ar
    26    15    16   ar
    27     4     8    1
    28     8     9    1
    29    26    27   ar
    30    27    35    1
    31    35    36   am
    32    35    37    2
    33    27    28   ar
    34    32    33   ar
    35    33    34   ar
    36    34    30   ar
    37    28    23   ar
    38     9     1    1
    39    16    11   ar
    40     7    10    1
    41    36    38    1
    42    36    39    1
@<TRIPOS>MOLECULE
*****
 39 42 0 0 0
SMALL
GASTEIGER

@<TRIPOS>ATOM
      1 C         140.0091  143.0458  161.3375 C.3     1  UNL1        0.1693
      2 C         141.1645  142.0991  161.4740 C.3     1  UNL1        0.0651
      3 C         142.2139  142.0372  160.4038 C.3     1  UNL1        0.0987
      4 N         142.1078  142.9221  159.1973 N.am    1  UNL1       -0.2637
      5 C         143.1571  142.8603  158.1273 C.2     1  UNL1        0.3077
      6 O         143.0510  143.7452  156.9207 O.2     1  UNL1       -0.2522
      7 N         144.3126  141.9135  158.2638 N.am    1  UNL1       -0.2681
      8 C         140.9523  143.8688  159.0609 C.3     1  UNL1        0.0987
      9 C         139.9030  143.9307  160.1309 C.3     1  UNL1        0.0651
     10 H         144.3822  141.3327  159.0557 H       1  UNL1        0.1564
     11 C         145.3620  141.8517  157.1937 C.ar    1  UNL1        0.0518
     12 C         146.6128  142.6696  157.3217 C.ar    1  UNL1        0.0178
     13 C         147.6622  142.6078  156.2517 C.ar    1  UNL1        0.0385
     14 C         147.4606  141.7281  155.0536 C.ar    1  UNL1        0.1469
     15 C         146.2098  140.9102  154.9255 C.ar    1  UNL1        0.0385
     16 C         145.1604  140.9720  155.9956 C.ar    1  UNL1        0.0178
     17 O         148.5100  141.6663  153.9835 O.3     1  UNL1       -0.4045
     18 C         149.2052  142.9198  153.5415 C.3     1  UNL1        0.5753
     19 F         149.9004  144.1734  153.0995 F       1  UNL1       -0.1328
     20 F         147.9326  143.4037  152.9120 F       1  UNL1       -0.1328
     21 F         150.4779  142.4360  154.1710 F       1  UNL1       -0.1328
     22 O         138.9597  143.1076  162.4075 O.3     1  UNL1       -0.4789
     23 C         139.8730  141.5915  166.5448 C.ar    1  UNL1        0.0034
     24 C         140.2842  142.9779  166.1464 C.ar    1  UNL1        0.0032
     25 C         139.9797  143.4833  164.7673 C.ar    1  UNL1        0.0370
     26 C         139.2642  142.6022  163.7867 C.ar    1  UNL1        0.1427
     27 C         138.8530  141.2158  164.1851 C.ar    1  UNL1        0.0870
     28 C         139.1574  140.7105  165.5642 C.ar    1  UNL1        0.0077
     29 C         142.0852  141.0038  171.3032 C.3     1  UNL1        0.1538
     30 N         141.1943  140.8160  170.1112 N.ar    1  UNL1       -0.2473
     31 C         141.2436  141.6103  168.8397 C.ar    1  UNL1        0.0967
     32 C         140.1774  141.0861  167.9240 C.ar    1  UNL1        0.0396
     33 C         139.4691  139.9679  168.6295 C.ar    1  UNL1        0.1216
     34 N         140.0976  139.8009  169.9812 N.ar    1  UNL1       -0.1676
     35 C         138.1374  140.3348  163.2045 C.2     1  UNL1        0.2457
     36 N         137.0298  140.8949  162.3622 N.am    1  UNL1       -0.3252
     37 O         138.5294  138.8936  163.0660 O.2     1  UNL1       -0.2703
     38 H         136.7725  141.8408  162.4530 H       1  UNL1        0.1453
     39 H         136.5602  140.3166  161.7186 H       1  UNL1        0.1453
@<TRIPOS>BOND
     1    29    30    1
     2    30    31   ar
     3    31    32   ar
     4    32    23    1
     5    23    24   ar
     6    24    25   ar
     7    25    26   ar
     8    26    22    1
     9    22     1    1
    10     1     2    1
    11     2     3    1
    12     3     4    1
    13     4     5   am
    14     5     6    2
    15     5     7   am
    16     7    11    1
    17    11    12   ar
    18    12    13   ar
    19    13    14   ar
    20    14    17    1
    21    17    18    1
    22    18    19    1
    23    18    20    1
    24    18    21    1
    25    14    15   ar
    26    15    16   ar
    27     4     8    1
    28     8     9    1
    29    26    27   ar
    30    27    35    1
    31    35    36   am
    32    35    37    2
    33    27    28   ar
    34    32    33   ar
    35    33    34   ar
    36    34    30   ar
    37    28    23   ar
    38     9     1    1
    39    16    11   ar
    40     7    10    1
    41    36    38    1
    42    36    39    1
@<TRIPOS>MOLECULE
*****
 39 42 0 0 0
SMALL
GASTEIGER

@<TRIPOS>ATOM
      1 C         143.5770  141.7068  160.8435 C.3     1  UNL1        0.1693
      2 C         142.8025  140.4434  161.0758 C.3     1  UNL1        0.0651
      3 C         142.6968  139.4175  159.9866 C.3     1  UNL1        0.0987
      4 N         143.3655  139.6550  158.6651 N.am    1  UNL1       -0.2637
      5 C         143.2597  138.6291  157.5759 C.2     1  UNL1        0.3077
      6 O         143.9284  138.8666  156.2544 O.2     1  UNL1       -0.2522
      7 N         142.4852  137.3657  157.8083 N.am    1  UNL1       -0.2681
      8 C         144.1400  140.9184  158.4328 C.3     1  UNL1        0.0987
      9 C         144.2457  141.9443  159.5219 C.3     1  UNL1        0.0651
     10 H         142.0463  137.2098  158.6756 H       1  UNL1        0.1564
     11 C         142.3795  136.3398  156.7190 C.ar    1  UNL1        0.0518
     12 C         143.4843  135.3459  156.5150 C.ar    1  UNL1        0.0178
     13 C         143.3786  134.3200  155.4259 C.ar    1  UNL1        0.0385
     14 C         142.1681  134.2880  154.5407 C.ar    1  UNL1        0.1469
     15 C         141.0632  135.2819  154.7447 C.ar    1  UNL1        0.0385
     16 C         141.1690  136.3077  155.8339 C.ar    1  UNL1        0.0178
     17 O         142.0623  133.2621  153.4515 O.3     1  UNL1       -0.4045
     18 C         142.1033  131.8014  153.7904 C.3     1  UNL1        0.5753
     19 F         142.1442  130.3408  154.1293 F       1  UNL1       -0.1328
     20 F         143.4683  131.6974  153.1774 F       1  UNL1       -0.1328
     21 F         140.7382  131.9054  154.4034 F       1  UNL1       -0.1328
     22 O         143.6828  142.7327  161.9326 O.3     1  UNL1       -0.4789
     23 C         141.6465  142.0367  165.8847 C.ar    1  UNL1        0.0034
     24 C         140.9792  142.8743  164.8345 C.ar    1  UNL1        0.0032
     25 C         141.6580  143.1063  163.5172 C.ar    1  UNL1        0.0370
     26 C         143.0040  142.5007  163.2501 C.ar    1  UNL1        0.1427
     27 C         143.6713  141.6631  164.3003 C.ar    1  UNL1        0.0870
     28 C         142.9926  141.4311  165.6176 C.ar    1  UNL1        0.0077
     29 C         139.7300  142.7868  170.7474 C.3     1  UNL1        0.1538
     30 N         140.0869  142.1495  169.4373 N.ar    1  UNL1       -0.2473
     31 C         140.8334  142.8038  168.3128 C.ar    1  UNL1        0.0967
     32 C         140.9678  141.8046  167.2022 C.ar    1  UNL1        0.0396
     33 C         140.3042  140.5327  167.6402 C.ar    1  UNL1        0.1216
     34 N         139.7598  140.7458  169.0215 N.ar    1  UNL1       -0.1676
     35 C         145.0174  141.0574  164.0332 C.2     1  UNL1        0.2457
     36 N         146.1261  141.9060  163.4849 N.am    1  UNL1       -0.3252
     37 O         145.2547  139.6033  164.3144 O.2     1  UNL1       -0.2703
     38 H         145.9704  142.8604  163.3004 H       1  UNL1        0.1453
     39 H         147.0096  141.5085  163.3096 H       1  UNL1        0.1453
@<TRIPOS>BOND
     1    29    30    1
     2    30    31   ar
     3    31    32   ar
     4    32    23    1
     5    23    24   ar
     6    24    25   ar
     7    25    26   ar
     8    26    22    1
     9    22     1    1
    10     1     2    1
    11     2     3    1
    12     3     4    1
    13     4     5   am
    14     5     6    2
    15     5     7   am
    16     7    11    1
    17    11    12   ar
    18    12    13   ar
    19    13    14   ar
    20    14    17    1
    21    17    18    1
    22    18    19    1
    23    18    20    1
    24    18    21    1
    25    14    15   ar
    26    15    16   ar
    27     4     8    1
    28     8     9    1
    29    26    27   ar
    30    27    35    1
    31    35    36   am
    32    35    37    2
    33    27    28   ar
    34    32    33   ar
    35    33    34   ar
    36    34    30   ar
    37    28    23   ar
    38     9     1    1
    39    16    11   ar
    40     7    10    1
    41    36    38    1
    42    36    39    1
