@<TRIPOS>MOLECULE
*****
 30 33 0 0 0
SMALL
GASTEIGER

@<TRIPOS>ATOM
      1 N         138.9368  143.7396  163.5277 N.3     1  UNL1       -0.2683
      2 C         137.9271  142.8085  162.9247 C.3     1  UNL1        0.0771
      3 C         137.6483  141.4840  163.5711 C.3     1  UNL1        0.0434
      4 C         138.3792  141.0906  164.8206 C.ar    1  UNL1       -0.0234
      5 C         138.1003  139.7660  165.4670 C.ar    1  UNL1       -0.0045
      6 C         138.8312  139.3725  166.7164 C.ar    1  UNL1       -0.0003
      7 C         139.8409  140.3036  167.3194 C.ar    1  UNL1       -0.0001
      8 C         140.1197  141.6282  166.6730 C.ar    1  UNL1       -0.0032
      9 C         139.3889  142.0216  165.4236 C.ar    1  UNL1       -0.0101
     10 C         139.6677  143.3461  164.7772 C.3     1  UNL1        0.0989
     11 C         140.5717  139.9102  168.5688 C.2     1  UNL1        0.0047
     12 C         141.4556  140.9025  169.2647 C.2     1  UNL1        0.0598
     13 C         142.1865  140.5090  170.5141 C.2     1  UNL1        0.2679
     14 O         141.7534  141.0588  171.8410 O.2     1  UNL1       -0.2681
     15 N         143.3503  139.5659  170.4368 N.am    1  UNL1       -0.1934
     16 O         144.0811  139.1725  171.6862 O.3     1  UNL1       -0.2949
     17 H         143.6344  139.2052  169.5659 H       1  UNL1        0.1825
     18 H         143.6766  139.6131  172.4498 H       1  UNL1        0.2414
     19 C         139.2157  145.0642  162.8813 C.3     1  UNL1        0.0771
     20 C         140.6210  145.5841  162.8125 C.3     1  UNL1        0.0446
     21 C         140.9424  144.9921  159.6194 C.3     1  UNL1        0.0517
     22 C         141.8440  144.4845  160.7054 C.2     1  UNL1        0.0551
     23 N         143.0518  143.6156  160.5143 N.2     1  UNL1       -0.2503
     24 C         143.6505  143.3507  161.8639 C.2     1  UNL1        0.0770
     25 C         144.8502  142.5585  162.2918 C.2     1  UNL1        0.0184
     26 C         145.2122  142.4715  163.7448 C.2     1  UNL1       -0.0027
     27 C         144.3745  143.1766  164.7701 C.2     1  UNL1       -0.0213
     28 C         143.1748  143.9688  164.3422 C.3     1  UNL1        0.0535
     29 C         142.8128  144.0559  162.8891 C.2     1  UNL1       -0.0030
     30 C         141.6964  144.7565  162.1731 C.2     1  UNL1       -0.0094
@<TRIPOS>BOND
     1    21    22    1
     2    22    23    2
     3    23    24    1
     4    24    25    2
     5    25    26    1
     6    26    27    2
     7    27    28    1
     8    28    29    1
     9    29    30    2
    10    30    20    1
    11    20    19    1
    12    19     1    1
    13     1     2    1
    14     2     3    1
    15     3     4    1
    16     4     5   ar
    17     5     6   ar
    18     6     7   ar
    19     7    11    1
    20    11    12    2
    21    12    13    1
    22    13    14    2
    23    13    15   am
    24    15    16    1
    25     7     8   ar
    26     8     9   ar
    27     9    10    1
    28    30    22    1
    29    10     1    1
    30    29    24    1
    31     9     4   ar
    32    15    17    1
    33    16    18    1
@<TRIPOS>MOLECULE
*****
 30 33 0 0 0
SMALL
GASTEIGER

@<TRIPOS>ATOM
      1 N         143.9353  142.5488  163.0580 N.3     1  UNL1       -0.2683
      2 C         144.8257  141.4160  162.6409 C.3     1  UNL1        0.0771
      3 C         144.8782  140.1619  163.4621 C.3     1  UNL1        0.0434
      4 C         144.0403  140.0405  164.7003 C.ar    1  UNL1       -0.0234
      5 C         144.0929  138.7863  165.5215 C.ar    1  UNL1       -0.0045
      6 C         143.2551  138.6649  166.7597 C.ar    1  UNL1       -0.0003
      7 C         142.3646  139.7977  167.1768 C.ar    1  UNL1       -0.0001
      8 C         142.3121  141.0519  166.3557 C.ar    1  UNL1       -0.0032
      9 C         143.1500  141.1733  165.1174 C.ar    1  UNL1       -0.0101
     10 C         143.0974  142.4274  164.2963 C.3     1  UNL1        0.0989
     11 C         141.5268  139.6764  168.4151 C.2     1  UNL1        0.0047
     12 C         140.2594  140.4684  168.5437 C.2     1  UNL1        0.0598
     13 C         139.4216  140.3471  169.7820 C.2     1  UNL1        0.2679
     14 O         139.8917  140.9586  171.0685 O.2     1  UNL1       -0.2681
     15 N         138.1137  139.6142  169.7337 N.am    1  UNL1       -0.1934
     16 O         137.2758  139.4929  170.9720 O.3     1  UNL1       -0.2949
     17 H         137.8052  139.2129  168.8893 H       1  UNL1        0.1825
     18 H         137.7211  139.9399  171.7087 H       1  UNL1        0.2414
     19 C         143.8827  143.8030  162.2369 C.3     1  UNL1        0.0771
     20 C         142.8786  144.8694  162.5599 C.3     1  UNL1        0.0446
     21 C         141.6556  144.6955  159.5394 C.3     1  UNL1        0.0517
     22 C         140.8728  144.5931  160.8148 C.2     1  UNL1        0.0551
     23 N         139.3903  144.3927  160.9258 N.2     1  UNL1       -0.2503
     24 C         139.0363  144.3489  162.3829 C.2     1  UNL1        0.0770
     25 C         137.7266  144.1736  163.0927 C.2     1  UNL1        0.0184
     26 C         137.6804  144.1715  164.5919 C.2     1  UNL1       -0.0027
     27 C         138.9441  144.3448  165.3814 C.2     1  UNL1       -0.0213
     28 C         140.2538  144.5201  164.6716 C.3     1  UNL1        0.0535
     29 C         140.2999  144.5221  163.1723 C.2     1  UNL1       -0.0030
     30 C         141.4349  144.6730  162.2033 C.2     1  UNL1       -0.0094
@<TRIPOS>BOND
     1    21    22    1
     2    22    23    2
     3    23    24    1
     4    24    25    2
     5    25    26    1
     6    26    27    2
     7    27    28    1
     8    28    29    1
     9    29    30    2
    10    30    20    1
    11    20    19    1
    12    19     1    1
    13     1     2    1
    14     2     3    1
    15     3     4    1
    16     4     5   ar
    17     5     6   ar
    18     6     7   ar
    19     7    11    1
    20    11    12    2
    21    12    13    1
    22    13    14    2
    23    13    15   am
    24    15    16    1
    25     7     8   ar
    26     8     9   ar
    27     9    10    1
    28    30    22    1
    29    10     1    1
    30    29    24    1
    31     9     4   ar
    32    15    17    1
    33    16    18    1
@<TRIPOS>MOLECULE
*****
 30 33 0 0 0
SMALL
GASTEIGER

@<TRIPOS>ATOM
      1 N         139.9308  138.3118  162.1398 N.3     1  UNL1       -0.2683
      2 C         141.3169  138.1207  161.5994 C.3     1  UNL1        0.0771
      3 C         142.5031  138.2828  162.5029 C.3     1  UNL1        0.0434
      4 C         142.3032  138.6360  163.9470 C.ar    1  UNL1       -0.0234
      5 C         143.4896  138.7982  164.8506 C.ar    1  UNL1       -0.0045
      6 C         143.2897  139.1514  166.2946 C.ar    1  UNL1       -0.0003
      7 C         141.9035  139.3425  166.8351 C.ar    1  UNL1       -0.0001
      8 C         140.7173  139.1803  165.9315 C.ar    1  UNL1       -0.0032
      9 C         140.9171  138.8271  164.4875 C.ar    1  UNL1       -0.0101
     10 C         139.7309  138.6650  163.5839 C.3     1  UNL1        0.0989
     11 C         141.7037  139.6957  168.2792 C.2     1  UNL1        0.0047
     12 C         140.3758  140.2127  168.7480 C.2     1  UNL1        0.0598
     13 C         140.1760  140.5659  170.1920 C.2     1  UNL1        0.2679
     14 O         139.5638  139.5684  171.1303 O.2     1  UNL1       -0.2681
     15 N         140.5883  141.9165  170.6978 N.am    1  UNL1       -0.1934
     16 O         140.3884  142.2697  172.1419 O.3     1  UNL1       -0.2949
     17 H         140.9901  142.5711  170.0820 H       1  UNL1        0.1825
     18 H         139.9847  141.5193  172.6054 H       1  UNL1        0.2414
     19 C         138.7444  138.1496  161.2362 C.3     1  UNL1        0.0771
     20 C         137.6325  139.1557  161.2705 C.3     1  UNL1        0.0446
     21 C         138.4490  140.7036  158.5161 C.3     1  UNL1        0.0517
     22 C         138.3151  141.3294  159.8727 C.2     1  UNL1        0.0551
     23 N         138.5330  142.7768  160.2014 N.2     1  UNL1       -0.2503
     24 C         138.2924  142.9597  161.6706 C.2     1  UNL1        0.0770
     25 C         138.3597  144.1688  162.5558 C.2     1  UNL1        0.0184
     26 C         138.0604  144.0437  164.0203 C.2     1  UNL1       -0.0027
     27 C         137.6937  142.7095  164.5997 C.2     1  UNL1       -0.0213
     28 C         137.6264  141.5005  163.7145 C.3     1  UNL1        0.0535
     29 C         137.9257  141.6256  162.2500 C.2     1  UNL1       -0.0030
     30 C         137.9398  140.6181  161.1388 C.2     1  UNL1       -0.0094
@<TRIPOS>BOND
     1    21    22    1
     2    22    23    2
     3    23    24    1
     4    24    25    2
     5    25    26    1
     6    26    27    2
     7    27    28    1
     8    28    29    1
     9    29    30    2
    10    30    20    1
    11    20    19    1
    12    19     1    1
    13     1     2    1
    14     2     3    1
    15     3     4    1
    16     4     5   ar
    17     5     6   ar
    18     6     7   ar
    19     7    11    1
    20    11    12    2
    21    12    13    1
    22    13    14    2
    23    13    15   am
    24    15    16    1
    25     7     8   ar
    26     8     9   ar
    27     9    10    1
    28    30    22    1
    29    10     1    1
    30    29    24    1
    31     9     4   ar
    32    15    17    1
    33    16    18    1
@<TRIPOS>MOLECULE
*****
 30 33 0 0 0
SMALL
GASTEIGER

@<TRIPOS>ATOM
      1 N         142.1819  138.4607  163.0330 N.3     1  UNL1       -0.2683
      2 C         141.0066  137.6645  162.5486 C.3     1  UNL1        0.0771
      3 C         139.7613  137.5837  163.3809 C.3     1  UNL1        0.0434
      4 C         139.6913  138.2991  164.6974 C.ar    1  UNL1       -0.0234
      5 C         138.4460  138.2182  165.5297 C.ar    1  UNL1       -0.0045
      6 C         138.3760  138.9335  166.8463 C.ar    1  UNL1       -0.0003
      7 C         139.5514  139.7298  167.3306 C.ar    1  UNL1       -0.0001
      8 C         140.7967  139.8106  166.4984 C.ar    1  UNL1       -0.0032
      9 C         140.8667  139.0952  165.1818 C.ar    1  UNL1       -0.0101
     10 C         142.1120  139.1761  164.3495 C.3     1  UNL1        0.0989
     11 C         139.4815  140.4451  168.6472 C.2     1  UNL1        0.0047
     12 C         140.2248  141.7335  168.8411 C.2     1  UNL1        0.0598
     13 C         140.1548  142.4489  170.1577 C.2     1  UNL1        0.2679
     14 O         139.9646  143.9364  170.1938 O.2     1  UNL1       -0.2681
     15 N         140.2750  141.6768  171.4380 N.am    1  UNL1       -0.1934
     16 O         140.2050  142.3922  172.7546 O.3     1  UNL1       -0.2949
     17 H         140.3998  140.7005  171.4143 H       1  UNL1        0.1825
     18 H         140.0807  143.3417  172.6005 H       1  UNL1        0.2414
     19 C         143.4273  138.5416  162.2007 C.3     1  UNL1        0.0771
     20 C         144.4598  139.5890  162.4956 C.3     1  UNL1        0.0446
     21 C         143.8095  140.7443  159.5137 C.3     1  UNL1        0.0517
     22 C         143.8962  141.5540  160.7734 C.2     1  UNL1        0.0551
     23 N         143.6992  143.0370  160.8836 N.2     1  UNL1       -0.2503
     24 C         143.8764  143.4224  162.3225 C.2     1  UNL1        0.0770
     25 C         143.7982  144.7459  163.0240 C.2     1  UNL1        0.0184
     26 C         144.0265  144.8248  164.5043 C.2     1  UNL1       -0.0027
     27 C         144.3330  143.5801  165.2833 C.2     1  UNL1       -0.0213
     28 C         144.4111  142.2565  164.5819 C.3     1  UNL1        0.0535
     29 C         144.1828  142.1777  163.1014 C.2     1  UNL1       -0.0030
     30 C         144.1951  141.0230  162.1441 C.2     1  UNL1       -0.0094
@<TRIPOS>BOND
     1    21    22    1
     2    22    23    2
     3    23    24    1
     4    24    25    2
     5    25    26    1
     6    26    27    2
     7    27    28    1
     8    28    29    1
     9    29    30    2
    10    30    20    1
    11    20    19    1
    12    19     1    1
    13     1     2    1
    14     2     3    1
    15     3     4    1
    16     4     5   ar
    17     5     6   ar
    18     6     7   ar
    19     7    11    1
    20    11    12    2
    21    12    13    1
    22    13    14    2
    23    13    15   am
    24    15    16    1
    25     7     8   ar
    26     8     9   ar
    27     9    10    1
    28    30    22    1
    29    10     1    1
    30    29    24    1
    31     9     4   ar
    32    15    17    1
    33    16    18    1
@<TRIPOS>MOLECULE
*****
 30 33 0 0 0
SMALL
GASTEIGER

@<TRIPOS>ATOM
      1 N         138.7397  143.8533  163.3782 N.3     1  UNL1       -0.2683
      2 C         137.7349  142.8894  162.8204 C.3     1  UNL1        0.0771
      3 C         137.5365  141.5526  163.4712 C.3     1  UNL1        0.0434
      4 C         138.3429  141.1797  164.6798 C.ar    1  UNL1       -0.0234
      5 C         138.1444  139.8429  165.3306 C.ar    1  UNL1       -0.0045
      6 C         138.9508  139.4700  166.5392 C.ar    1  UNL1       -0.0003
      7 C         139.9557  140.4340  167.0970 C.ar    1  UNL1       -0.0001
      8 C         140.1541  141.7708  166.4462 C.ar    1  UNL1       -0.0032
      9 C         139.3477  142.1436  165.2376 C.ar    1  UNL1       -0.0101
     10 C         139.5461  143.4804  164.5868 C.3     1  UNL1        0.0989
     11 C         140.7620  140.0611  168.3056 C.2     1  UNL1        0.0047
     12 C         141.2018  141.1222  169.2704 C.2     1  UNL1        0.0598
     13 C         142.0082  140.7494  170.4790 C.2     1  UNL1        0.2679
     14 O         141.6133  141.2633  171.8318 O.2     1  UNL1       -0.2681
     15 N         143.2094  139.8627  170.3348 N.am    1  UNL1       -0.1934
     16 O         144.0158  139.4898  171.5434 O.3     1  UNL1       -0.2949
     17 H         143.4686  139.5255  169.4469 H       1  UNL1        0.1825
     18 H         143.6278  139.9025  172.3309 H       1  UNL1        0.2414
     19 C         138.9382  145.1902  162.7274 C.3     1  UNL1        0.0771
     20 C         140.3239  145.7281  162.5264 C.3     1  UNL1        0.0446
     21 C         143.2226  144.8020  163.7051 C.3     1  UNL1        0.0517
     22 C         142.6815  144.4820  162.3432 C.2     1  UNL1        0.0551
     23 N         143.3779  143.6800  161.2839 N.2     1  UNL1       -0.2503
     24 C         142.4759  143.6101  160.0874 C.2     1  UNL1        0.0770
     25 C         142.6342  142.9536  158.7481 C.2     1  UNL1        0.0184
     26 C         141.5388  143.0558  157.7286 C.2     1  UNL1       -0.0027
     27 C         140.2849  143.8146  158.0483 C.2     1  UNL1       -0.0213
     28 C         140.1266  144.4710  159.3877 C.3     1  UNL1        0.0535
     29 C         141.2221  144.3688  160.4073 C.2     1  UNL1       -0.0030
     30 C         141.3492  144.9076  161.8013 C.2     1  UNL1       -0.0094
@<TRIPOS>BOND
     1    21    22    1
     2    22    23    2
     3    23    24    1
     4    24    25    2
     5    25    26    1
     6    26    27    2
     7    27    28    1
     8    28    29    1
     9    29    30    2
    10    30    20    1
    11    20    19    1
    12    19     1    1
    13     1     2    1
    14     2     3    1
    15     3     4    1
    16     4     5   ar
    17     5     6   ar
    18     6     7   ar
    19     7    11    1
    20    11    12    2
    21    12    13    1
    22    13    14    2
    23    13    15   am
    24    15    16    1
    25     7     8   ar
    26     8     9   ar
    27     9    10    1
    28    30    22    1
    29    10     1    1
    30    29    24    1
    31     9     4   ar
    32    15    17    1
    33    16    18    1
@<TRIPOS>MOLECULE
*****
 30 33 0 0 0
SMALL
GASTEIGER

@<TRIPOS>ATOM
      1 N         139.2259  138.6472  163.1891 N.3     1  UNL1       -0.2683
      2 C         140.1939  137.5567  162.8376 C.3     1  UNL1        0.0771
      3 C         141.4185  137.3418  163.6767 C.3     1  UNL1        0.0434
      4 C         141.6751  138.2174  164.8673 C.ar    1  UNL1       -0.0234
      5 C         142.8998  138.0025  165.7064 C.ar    1  UNL1       -0.0045
      6 C         143.1563  138.8781  166.8969 C.ar    1  UNL1       -0.0003
      7 C         142.1882  139.9687  167.2483 C.ar    1  UNL1       -0.0001
      8 C         140.9636  140.1836  166.4093 C.ar    1  UNL1       -0.0032
      9 C         140.7070  139.3080  165.2187 C.ar    1  UNL1       -0.0101
     10 C         139.4824  139.5229  164.3796 C.3     1  UNL1        0.0989
     11 C         142.4448  140.8444  168.4389 C.2     1  UNL1        0.0047
     12 C         141.7005  142.1377  168.5930 C.2     1  UNL1        0.0598
     13 C         141.9571  143.0133  169.7836 C.2     1  UNL1        0.2679
     14 O         140.8071  143.6355  170.5187 O.2     1  UNL1       -0.2681
     15 N         143.3636  143.2668  170.2390 N.am    1  UNL1       -0.1934
     16 O         143.6202  144.1424  171.4295 O.3     1  UNL1       -0.2949
     17 H         144.1184  142.8584  169.7565 H       1  UNL1        0.1825
     18 H         142.7756  144.4610  171.7846 H       1  UNL1        0.2414
     19 C         138.0012  138.8622  162.3500 C.3     1  UNL1        0.0771
     20 C         137.7450  140.2021  161.7264 C.3     1  UNL1        0.0446
     21 C         140.4794  140.5281  159.9753 C.3     1  UNL1        0.0517
     22 C         140.0134  141.4505  161.0625 C.2     1  UNL1        0.0551
     23 N         140.7225  142.6848  161.5356 N.2     1  UNL1       -0.2503
     24 C         139.9038  143.2978  162.6330 C.2     1  UNL1        0.0770
     25 C         140.1077  144.5244  163.4720 C.2     1  UNL1        0.0184
     26 C         139.0966  144.8955  164.5159 C.2     1  UNL1       -0.0027
     27 C         137.8816  144.0401  164.7210 C.2     1  UNL1       -0.0213
     28 C         137.6777  142.8135  163.8820 C.3     1  UNL1        0.0535
     29 C         138.6888  142.4424  162.8380 C.2     1  UNL1       -0.0030
     30 C         138.7565  141.3007  161.8674 C.2     1  UNL1       -0.0094
@<TRIPOS>BOND
     1    21    22    1
     2    22    23    2
     3    23    24    1
     4    24    25    2
     5    25    26    1
     6    26    27    2
     7    27    28    1
     8    28    29    1
     9    29    30    2
    10    30    20    1
    11    20    19    1
    12    19     1    1
    13     1     2    1
    14     2     3    1
    15     3     4    1
    16     4     5   ar
    17     5     6   ar
    18     6     7   ar
    19     7    11    1
    20    11    12    2
    21    12    13    1
    22    13    14    2
    23    13    15   am
    24    15    16    1
    25     7     8   ar
    26     8     9   ar
    27     9    10    1
    28    30    22    1
    29    10     1    1
    30    29    24    1
    31     9     4   ar
    32    15    17    1
    33    16    18    1
@<TRIPOS>MOLECULE
*****
 30 33 0 0 0
SMALL
GASTEIGER

@<TRIPOS>ATOM
      1 N         138.6797  141.5463  161.3776 N.3     1  UNL1       -0.2683
      2 C         138.8791  140.2057  160.7351 C.3     1  UNL1        0.0771
      3 C         138.9701  138.9729  161.5848 C.3     1  UNL1        0.0434
      4 C         138.8617  139.0809  163.0770 C.ar    1  UNL1       -0.0234
      5 C         138.9527  137.8481  163.9267 C.ar    1  UNL1       -0.0045
      6 C         138.8443  137.9560  165.4189 C.ar    1  UNL1       -0.0003
      7 C         138.6449  139.2968  166.0614 C.ar    1  UNL1       -0.0001
      8 C         138.5539  140.5295  165.2117 C.ar    1  UNL1       -0.0032
      9 C         138.6623  140.4216  163.7195 C.ar    1  UNL1       -0.0101
     10 C         138.5713  141.6543  162.8698 C.3     1  UNL1        0.0989
     11 C         138.5365  139.4047  167.5536 C.2     1  UNL1        0.0047
     12 C         139.6586  140.0079  168.3454 C.2     1  UNL1        0.0598
     13 C         139.5502  140.1159  169.8376 C.2     1  UNL1        0.2679
     14 O         138.2692  139.7465  170.5251 O.2     1  UNL1       -0.2681
     15 N         140.7227  140.5932  170.6421 N.am    1  UNL1       -0.1934
     16 O         140.6143  140.7011  172.1343 O.3     1  UNL1       -0.2949
     17 H         141.5634  140.8356  170.1909 H       1  UNL1        0.1825
     18 H         139.7273  140.4264  172.4148 H       1  UNL1        0.2414
     19 C         138.5887  142.7791  160.5279 C.3     1  UNL1        0.0771
     20 C         139.7677  143.2144  159.7091 C.3     1  UNL1        0.0446
     21 C         142.1973  141.3656  158.5565 C.3     1  UNL1        0.0517
     22 C         142.2688  142.2720  159.7495 C.2     1  UNL1        0.0551
     23 N         143.4697  142.4878  160.6222 N.2     1  UNL1       -0.2503
     24 C         143.0950  143.4710  161.6914 C.2     1  UNL1        0.0770
     25 C         143.8730  144.0600  162.8306 C.2     1  UNL1        0.0184
     26 C         143.2188  145.0409  163.7577 C.2     1  UNL1       -0.0027
     27 C         141.7864  145.4328  163.5459 C.2     1  UNL1       -0.0213
     28 C         141.0084  144.8437  162.4067 C.3     1  UNL1        0.0535
     29 C         141.6627  143.8628  161.4795 C.2     1  UNL1       -0.0030
     30 C         141.1521  143.1219  160.2794 C.2     1  UNL1       -0.0094
@<TRIPOS>BOND
     1    21    22    1
     2    22    23    2
     3    23    24    1
     4    24    25    2
     5    25    26    1
     6    26    27    2
     7    27    28    1
     8    28    29    1
     9    29    30    2
    10    30    20    1
    11    20    19    1
    12    19     1    1
    13     1     2    1
    14     2     3    1
    15     3     4    1
    16     4     5   ar
    17     5     6   ar
    18     6     7   ar
    19     7    11    1
    20    11    12    2
    21    12    13    1
    22    13    14    2
    23    13    15   am
    24    15    16    1
    25     7     8   ar
    26     8     9   ar
    27     9    10    1
    28    30    22    1
    29    10     1    1
    30    29    24    1
    31     9     4   ar
    32    15    17    1
    33    16    18    1
@<TRIPOS>MOLECULE
*****
 30 33 0 0 0
SMALL
GASTEIGER

@<TRIPOS>ATOM
      1 N         138.9861  141.4534  161.5351 N.3     1  UNL1       -0.2683
      2 C         138.9284  140.0798  160.9354 C.3     1  UNL1        0.0771
      3 C         138.8596  138.8749  161.8262 C.3     1  UNL1        0.0434
      4 C         138.8484  139.0437  163.3166 C.ar    1  UNL1       -0.0234
      5 C         138.7796  137.8387  164.2073 C.ar    1  UNL1       -0.0045
      6 C         138.7684  138.0075  165.6978 C.ar    1  UNL1       -0.0003
      7 C         138.8261  139.3812  166.2975 C.ar    1  UNL1       -0.0001
      8 C         138.8949  140.5861  165.4067 C.ar    1  UNL1       -0.0032
      9 C         138.9061  140.4173  163.9163 C.ar    1  UNL1       -0.0101
     10 C         138.9749  141.6222  163.0255 C.3     1  UNL1        0.0989
     11 C         138.8149  139.5500  167.7879 C.2     1  UNL1        0.0047
     12 C         139.7121  140.5633  168.4347 C.2     1  UNL1        0.0598
     13 C         139.7009  140.7321  169.9251 C.2     1  UNL1        0.2679
     14 O         138.9190  139.7809  170.7818 O.2     1  UNL1       -0.2681
     15 N         140.4717  141.8521  170.5589 N.am    1  UNL1       -0.1934
     16 O         140.4605  142.0208  172.0493 O.3     1  UNL1       -0.2949
     17 H         140.9849  142.4763  169.9966 H       1  UNL1        0.1825
     18 H         139.9115  141.3282  172.4490 H       1  UNL1        0.2414
     19 C         139.0549  142.6584  160.6443 C.3     1  UNL1        0.0771
     20 C         140.3549  143.3846  160.4641 C.3     1  UNL1        0.0446
     21 C         139.7339  146.2890  161.8163 C.3     1  UNL1        0.0517
     22 C         140.7714  145.3071  162.2739 C.2     1  UNL1        0.0551
     23 N         141.7057  145.4878  163.4335 N.2     1  UNL1       -0.2503
     24 C         142.5685  144.2645  163.5286 C.2     1  UNL1        0.0770
     25 C         143.6675  143.8825  164.4754 C.2     1  UNL1        0.0184
     26 C         144.3655  142.5638  164.3214 C.2     1  UNL1       -0.0027
     27 C         143.9646  141.6270  163.2206 C.2     1  UNL1       -0.0213
     28 C         142.8656  142.0090  162.2738 C.3     1  UNL1        0.0535
     29 C         142.1676  143.3277  162.4279 C.2     1  UNL1       -0.0030
     30 C         141.0569  143.9721  161.6525 C.2     1  UNL1       -0.0094
@<TRIPOS>BOND
     1    21    22    1
     2    22    23    2
     3    23    24    1
     4    24    25    2
     5    25    26    1
     6    26    27    2
     7    27    28    1
     8    28    29    1
     9    29    30    2
    10    30    20    1
    11    20    19    1
    12    19     1    1
    13     1     2    1
    14     2     3    1
    15     3     4    1
    16     4     5   ar
    17     5     6   ar
    18     6     7   ar
    19     7    11    1
    20    11    12    2
    21    12    13    1
    22    13    14    2
    23    13    15   am
    24    15    16    1
    25     7     8   ar
    26     8     9   ar
    27     9    10    1
    28    30    22    1
    29    10     1    1
    30    29    24    1
    31     9     4   ar
    32    15    17    1
    33    16    18    1
@<TRIPOS>MOLECULE
*****
 30 33 0 0 0
SMALL
GASTEIGER

@<TRIPOS>ATOM
      1 N         142.5494  138.5875  163.1197 N.3     1  UNL1       -0.2683
      2 C         141.4844  137.7290  162.5044 C.3     1  UNL1        0.0771
      3 C         140.1733  137.5405  163.2083 C.3     1  UNL1        0.0434
      4 C         139.9273  138.2105  164.5277 C.ar    1  UNL1       -0.0234
      5 C         138.6162  138.0220  165.2316 C.ar    1  UNL1       -0.0045
      6 C         138.3702  138.6919  166.5509 C.ar    1  UNL1       -0.0003
      7 C         139.4353  139.5504  167.1663 C.ar    1  UNL1       -0.0001
      8 C         140.7463  139.7389  166.4624 C.ar    1  UNL1       -0.0032
      9 C         140.9923  139.0689  165.1430 C.ar    1  UNL1       -0.0101
     10 C         142.3034  139.2574  164.4391 C.3     1  UNL1        0.0989
     11 C         139.1893  140.2204  168.4856 C.2     1  UNL1        0.0047
     12 C         140.3283  140.8517  169.2302 C.2     1  UNL1        0.0598
     13 C         140.0823  141.5216  170.5495 C.2     1  UNL1        0.2679
     14 O         140.6639  140.9422  171.8049 O.2     1  UNL1       -0.2681
     15 N         139.2546  142.7710  170.6135 N.am    1  UNL1       -0.1934
     16 O         139.0086  143.4409  171.9328 O.3     1  UNL1       -0.2949
     17 H         138.8729  143.1513  169.7895 H       1  UNL1        0.1825
     18 H         139.4517  142.9416  172.6366 H       1  UNL1        0.2414
     19 C         143.8605  138.7760  162.4158 C.3     1  UNL1        0.0771
     20 C         144.1171  140.0282  161.6310 C.3     1  UNL1        0.0446
     21 C         145.9738  141.6637  163.7588 C.3     1  UNL1        0.0517
     22 C         144.6548  142.1185  163.2080 C.2     1  UNL1        0.0551
     23 N         143.9575  143.4049  163.5385 N.2     1  UNL1       -0.2503
     24 C         142.6732  143.4481  162.7647 C.2     1  UNL1        0.0770
     25 C         141.5791  144.4717  162.6920 C.2     1  UNL1        0.0184
     26 C         140.3886  144.2357  161.8107 C.2     1  UNL1       -0.0027
     27 C         140.2921  142.9760  161.0019 C.2     1  UNL1       -0.0213
     28 C         141.3861  141.9525  161.0746 C.3     1  UNL1        0.0535
     29 C         142.5767  142.1885  161.9560 C.2     1  UNL1       -0.0030
     30 C         143.8013  141.3668  162.2299 C.2     1  UNL1       -0.0094
@<TRIPOS>BOND
     1    21    22    1
     2    22    23    2
     3    23    24    1
     4    24    25    2
     5    25    26    1
     6    26    27    2
     7    27    28    1
     8    28    29    1
     9    29    30    2
    10    30    20    1
    11    20    19    1
    12    19     1    1
    13     1     2    1
    14     2     3    1
    15     3     4    1
    16     4     5   ar
    17     5     6   ar
    18     6     7   ar
    19     7    11    1
    20    11    12    2
    21    12    13    1
    22    13    14    2
    23    13    15   am
    24    15    16    1
    25     7     8   ar
    26     8     9   ar
    27     9    10    1
    28    30    22    1
    29    10     1    1
    30    29    24    1
    31     9     4   ar
    32    15    17    1
    33    16    18    1
