@<TRIPOS>MOLECULE
*****
 44 48 0 0 0
SMALL
GASTEIGER

@<TRIPOS>ATOM
      1 C         139.5183  140.8314  164.0995 C.ar    1  UNL1        0.1235
      2 N         140.5677  140.3789  163.1279 N.ar    1  UNL1       -0.2305
      3 C         140.7182  141.4417  162.0801 C.ar    1  UNL1        0.1013
      4 C         139.7618  142.5510  162.4042 C.ar    1  UNL1        0.1141
      5 C         139.4705  143.8557  161.7241 C.ar    1  UNL1        0.1432
      6 N         140.2120  144.2330  160.4760 N.pl3   1  UNL1       -0.3414
      7 N         138.4375  144.7833  162.2921 N.ar    1  UNL1       -0.2265
      8 C         137.6960  144.4061  163.5402 C.ar    1  UNL1        0.1193
      9 C         137.9874  143.1013  164.2203 C.ar    1  UNL1        0.1020
     10 N         139.0203  142.1737  163.6523 N.ar    1  UNL1       -0.2885
     11 H         140.8900  143.6242  160.1032 H       1  UNL1        0.1438
     12 H         140.0208  145.0894  160.0296 H       1  UNL1        0.1438
     13 C         140.0194  140.5382  167.4825 C.3     1  UNL1        0.0325
     14 C         138.9899  139.4608  167.6542 C.3     1  UNL1        0.0056
     15 C         138.3904  139.1741  166.3093 C.3     1  UNL1        0.0074
     16 C         139.0493  140.0743  165.3066 C.3     1  UNL1        0.0514
     17 C         138.1406  139.3895  164.3292 C.3     1  UNL1        0.0075
     18 C         140.0561  140.9174  166.0317 C.3     1  UNL1        0.0123
     19 C         139.1379  140.8411  169.9076 C.3     1  UNL1        0.0004
     20 C         140.2060  140.3773  168.9621 C.3     1  UNL1        0.0049
     21 C         141.4608  139.7525  169.4963 C.3     1  UNL1        0.0004
     22 C         141.0879  141.5819  167.6202 C.2     1  UNL1        0.0497
     23 O         142.4570  141.3320  167.0606 O.co2   1  UNL1       -0.5492
     24 O         140.7873  142.8755  168.3176 O.co2   1  UNL1       -0.5492
     25 C         141.6597  141.4022  160.9131 C.ar    1  UNL1        0.0192
     26 C         143.0198  142.0250  161.0252 C.ar    1  UNL1        0.0017
     27 C         143.9613  141.9855  159.8582 C.ar    1  UNL1        0.0046
     28 C         143.5428  141.3233  158.5790 C.ar    1  UNL1        0.0537
     29 C         142.1828  140.7006  158.4668 C.ar    1  UNL1        0.0046
     30 C         141.2413  140.7401  159.6339 C.ar    1  UNL1        0.0017
     31 C         144.4844  141.2838  157.4120 C.2     1  UNL1        0.2505
     32 O         144.9427  139.9656  156.8623 O.2     1  UNL1       -0.2698
     33 N         144.9675  142.5626  156.7946 N.am    1  UNL1       -0.2658
     34 H         144.6667  143.4278  157.1554 H       1  UNL1        0.1566
     35 C         145.9091  142.5232  155.6276 C.ar    1  UNL1        0.1343
     36 C         147.3536  142.1799  155.8405 C.ar    1  UNL1        0.0383
     37 C         148.2951  142.1405  154.6734 C.ar    1  UNL1        0.0757
     38 C         147.7920  142.4445  153.2934 C.ar    1  UNL1        0.0246
     39 C         146.3474  142.7879  153.0805 C.ar    1  UNL1        0.1003
     40 N         145.4060  142.8273  154.2476 N.ar    1  UNL1       -0.2290
     41 C         149.7396  141.7971  154.8864 C.3     1  UNL1        0.4187
     42 F         151.1842  141.4537  155.0995 F       1  UNL1       -0.1659
     43 F         149.8834  141.4948  153.4242 F       1  UNL1       -0.1659
     44 F         149.5958  142.0994  156.3486 F       1  UNL1       -0.1659
@<TRIPOS>UNITY_ATOM_ATTR
23 1
charge -1
@<TRIPOS>BOND
     1    19    20    1
     2    20    21    1
     3    13    20    1
     4    13    22    1
     5    22    23   ar
     6    22    24   ar
     7    13    14    1
     8    14    15    1
     9    15    16    1
    10    16    17    1
    11    16     1    1
    12     1     2   ar
    13     2     3   ar
    14     3    25    1
    15    25    26   ar
    16    26    27   ar
    17    27    28   ar
    18    28    31    1
    19    31    32    2
    20    31    33   am
    21    33    35    1
    22    35    36   ar
    23    36    37   ar
    24    37    41    1
    25    41    42    1
    26    41    43    1
    27    41    44    1
    28    37    38   ar
    29    38    39   ar
    30    39    40   ar
    31    28    29   ar
    32    29    30   ar
    33     3     4   ar
    34     4     5   ar
    35     5     6    1
    36     5     7   ar
    37     7     8   ar
    38     8     9   ar
    39     9    10   ar
    40    16    18    1
    41    18    13    1
    42    10     1   ar
    43    30    25   ar
    44    10     4   ar
    45    40    35   ar
    46    33    34    1
    47     6    11    1
    48     6    12    1
@<TRIPOS>MOLECULE
*****
 44 48 0 0 0
SMALL
GASTEIGER

@<TRIPOS>ATOM
      1 C         139.8891  140.2099  165.2968 C.ar    1  UNL1        0.1235
      2 N         139.8578  141.4769  164.4944 N.ar    1  UNL1       -0.2305
      3 C         140.3109  141.1545  163.1013 C.ar    1  UNL1        0.1013
      4 C         140.6223  139.6883  163.0427 C.ar    1  UNL1        0.1141
      5 C         141.1095  138.8094  161.9291 C.ar    1  UNL1        0.1432
      6 N         141.3702  139.3932  160.5722 N.pl3   1  UNL1       -0.3414
      7 N         141.3360  137.3468  162.1725 N.ar    1  UNL1       -0.2265
      8 C         141.0753  136.7630  163.5294 C.ar    1  UNL1        0.1193
      9 C         140.5881  137.6419  164.6430 C.ar    1  UNL1        0.1020
     10 N         140.3616  139.1045  164.3996 N.ar    1  UNL1       -0.2885
     11 H         141.2216  140.3532  160.4125 H       1  UNL1        0.1438
     12 H         141.6900  138.8163  159.8413 H       1  UNL1        0.1438
     13 C         141.1370  140.5878  168.4719 C.3     1  UNL1        0.0325
     14 C         139.8640  140.1636  169.1426 C.3     1  UNL1        0.0056
     15 C         138.8608  139.8451  168.0737 C.3     1  UNL1        0.0074
     16 C         139.5138  140.0725  166.7426 C.3     1  UNL1        0.0514
     17 C         138.1856  139.6422  166.1943 C.3     1  UNL1        0.0075
     18 C         140.9205  140.5315  166.9887 C.3     1  UNL1        0.0123
     19 C         142.7217  139.8327  170.3871 C.3     1  UNL1        0.0004
     20 C         141.6415  140.7394  169.8763 C.3     1  UNL1        0.0049
     21 C         141.0659  141.7978  170.7700 C.3     1  UNL1        0.0004
     22 C         142.5154  141.0438  168.0949 C.2     1  UNL1        0.0497
     23 O         143.0389  142.3525  168.6081 O.co2   1  UNL1       -0.5492
     24 O         143.3701  140.1911  167.2048 O.co2   1  UNL1       -0.5492
     25 C         140.4315  142.1274  161.9660 C.ar    1  UNL1        0.0192
     26 C         141.6857  142.9333  161.7989 C.ar    1  UNL1        0.0017
     27 C         141.8063  143.9063  160.6637 C.ar    1  UNL1        0.0046
     28 C         140.6729  144.0734  159.6955 C.ar    1  UNL1        0.0537
     29 C         139.4188  143.2675  159.8626 C.ar    1  UNL1        0.0046
     30 C         139.2982  142.2946  160.9978 C.ar    1  UNL1        0.0017
     31 C         140.7935  145.0463  158.5602 C.2     1  UNL1        0.2505
     32 O         141.9941  145.9401  158.4628 O.2     1  UNL1       -0.2698
     33 N         139.7134  145.1254  157.5224 N.am    1  UNL1       -0.2658
     34 H         138.9254  144.5388  157.5864 H       1  UNL1        0.1566
     35 C         139.8339  146.0984  156.3871 C.ar    1  UNL1        0.1343
     36 C         139.1922  147.4505  156.4866 C.ar    1  UNL1        0.0383
     37 C         139.3128  148.4233  155.3513 C.ar    1  UNL1        0.0757
     38 C         140.0751  148.0441  154.1164 C.ar    1  UNL1        0.0246
     39 C         140.7168  146.6919  154.0168 C.ar    1  UNL1        0.1003
     40 N         140.5962  145.7191  155.1521 N.ar    1  UNL1       -0.2290
     41 C         138.6711  149.7754  155.4509 C.3     1  UNL1        0.4187
     42 F         138.0293  151.1276  155.5507 F       1  UNL1       -0.1659
     43 F         139.1378  150.0994  154.0627 F       1  UNL1       -0.1659
     44 F         138.2043  149.4516  156.8392 F       1  UNL1       -0.1659
@<TRIPOS>UNITY_ATOM_ATTR
23 1
charge -1
@<TRIPOS>BOND
     1    19    20    1
     2    20    21    1
     3    13    20    1
     4    13    22    1
     5    22    23   ar
     6    22    24   ar
     7    13    14    1
     8    14    15    1
     9    15    16    1
    10    16    17    1
    11    16     1    1
    12     1     2   ar
    13     2     3   ar
    14     3    25    1
    15    25    26   ar
    16    26    27   ar
    17    27    28   ar
    18    28    31    1
    19    31    32    2
    20    31    33   am
    21    33    35    1
    22    35    36   ar
    23    36    37   ar
    24    37    41    1
    25    41    42    1
    26    41    43    1
    27    41    44    1
    28    37    38   ar
    29    38    39   ar
    30    39    40   ar
    31    28    29   ar
    32    29    30   ar
    33     3     4   ar
    34     4     5   ar
    35     5     6    1
    36     5     7   ar
    37     7     8   ar
    38     8     9   ar
    39     9    10   ar
    40    16    18    1
    41    18    13    1
    42    10     1   ar
    43    30    25   ar
    44    10     4   ar
    45    40    35   ar
    46    33    34    1
    47     6    11    1
    48     6    12    1
@<TRIPOS>MOLECULE
*****
 44 48 0 0 0
SMALL
GASTEIGER

@<TRIPOS>ATOM
      1 C         139.3253  140.4079  164.8218 C.ar    1  UNL1        0.1235
      2 N         139.8915  139.4648  163.8021 N.ar    1  UNL1       -0.2305
      3 C         139.7086  140.0825  162.4475 C.ar    1  UNL1        0.1013
      4 C         139.0294  141.4074  162.6300 C.ar    1  UNL1        0.1141
      5 C         138.5960  142.4566  161.6496 C.ar    1  UNL1        0.1432
      6 N         138.8329  142.2555  160.1822 N.pl3   1  UNL1       -0.3414
      7 N         137.9257  143.7070  162.1367 N.ar    1  UNL1       -0.2265
      8 C         137.6889  143.9081  163.6041 C.ar    1  UNL1        0.1193
      9 C         138.1222  142.8589  164.5845 C.ar    1  UNL1        0.1020
     10 N         138.7925  141.6085  164.0975 N.ar    1  UNL1       -0.2885
     11 H         139.2728  141.4348  159.8625 H       1  UNL1        0.1438
     12 H         138.5484  142.9441  159.5387 H       1  UNL1        0.1438
     13 C         140.8994  141.3255  167.7308 C.3     1  UNL1        0.0325
     14 C         140.0184  140.4823  168.6043 C.3     1  UNL1        0.0056
     15 C         139.0281  139.7799  167.7234 C.3     1  UNL1        0.0074
     16 C         139.2970  140.1889  166.3055 C.3     1  UNL1        0.0514
     17 C         138.1464  139.2795  165.9908 C.3     1  UNL1        0.0075
     18 C         140.4535  141.1442  166.3101 C.3     1  UNL1        0.0123
     19 C         141.3482  143.0662  169.6065 C.3     1  UNL1        0.0004
     20 C         141.5582  141.6994  169.0254 C.3     1  UNL1        0.0049
     21 C         142.4270  140.7065  169.7391 C.3     1  UNL1        0.0004
     22 C         141.9181  142.2469  167.1280 C.2     1  UNL1        0.0497
     23 O         141.5124  143.2157  166.0570 O.co2   1  UNL1       -0.5492
     24 O         143.3423  142.1994  167.5961 O.co2   1  UNL1       -0.5492
     25 C         140.1308  139.4809  161.1398 C.ar    1  UNL1        0.0192
     26 C         141.5466  139.6312  160.6674 C.ar    1  UNL1        0.0017
     27 C         141.9688  139.0297  159.3598 C.ar    1  UNL1        0.0046
     28 C         140.9753  138.2778  158.5246 C.ar    1  UNL1        0.0537
     29 C         139.5596  138.1275  158.9970 C.ar    1  UNL1        0.0046
     30 C         139.1374  138.7291  160.3046 C.ar    1  UNL1        0.0017
     31 C         141.3974  137.6763  157.2169 C.2     1  UNL1        0.2505
     32 O         142.7619  137.9645  156.6645 O.2     1  UNL1       -0.2698
     33 N         140.4551  136.7865  156.4618 N.am    1  UNL1       -0.2658
     34 H         139.5596  136.5973  156.8244 H       1  UNL1        0.1566
     35 C         140.8772  136.1849  155.1541 C.ar    1  UNL1        0.1343
     36 C         141.5652  134.8522  155.1289 C.ar    1  UNL1        0.0383
     37 C         141.9873  134.2507  153.8212 C.ar    1  UNL1        0.0757
     38 C         141.7214  134.9818  152.5387 C.ar    1  UNL1        0.0246
     39 C         141.0334  136.3145  152.5640 C.ar    1  UNL1        0.1003
     40 N         140.6113  136.9160  153.8717 N.ar    1  UNL1       -0.2290
     41 C         142.6753  132.9180  153.7961 C.3     1  UNL1        0.4187
     42 F         143.3633  131.5853  153.7709 F       1  UNL1       -0.1659
     43 F         143.0934  133.1069  155.2241 F       1  UNL1       -0.1659
     44 F         142.2571  132.7291  152.3679 F       1  UNL1       -0.1659
@<TRIPOS>UNITY_ATOM_ATTR
23 1
charge -1
@<TRIPOS>BOND
     1    19    20    1
     2    20    21    1
     3    13    20    1
     4    13    22    1
     5    22    23   ar
     6    22    24   ar
     7    13    14    1
     8    14    15    1
     9    15    16    1
    10    16    17    1
    11    16     1    1
    12     1     2   ar
    13     2     3   ar
    14     3    25    1
    15    25    26   ar
    16    26    27   ar
    17    27    28   ar
    18    28    31    1
    19    31    32    2
    20    31    33   am
    21    33    35    1
    22    35    36   ar
    23    36    37   ar
    24    37    41    1
    25    41    42    1
    26    41    43    1
    27    41    44    1
    28    37    38   ar
    29    38    39   ar
    30    39    40   ar
    31    28    29   ar
    32    29    30   ar
    33     3     4   ar
    34     4     5   ar
    35     5     6    1
    36     5     7   ar
    37     7     8   ar
    38     8     9   ar
    39     9    10   ar
    40    16    18    1
    41    18    13    1
    42    10     1   ar
    43    30    25   ar
    44    10     4   ar
    45    40    35   ar
    46    33    34    1
    47     6    11    1
    48     6    12    1
@<TRIPOS>MOLECULE
*****
 44 48 0 0 0
SMALL
GASTEIGER

@<TRIPOS>ATOM
      1 C         142.4848  140.6558  164.7091 C.ar    1  UNL1        0.1235
      2 N         141.5168  140.3200  163.6135 N.ar    1  UNL1       -0.2305
      3 C         141.4846  141.4726  162.6541 C.ar    1  UNL1        0.1013
      4 C         142.4326  142.5208  163.1568 C.ar    1  UNL1        0.1141
      5 C         142.8127  143.8696  162.6221 C.ar    1  UNL1        0.1432
      6 N         142.1946  144.3744  161.3520 N.pl3   1  UNL1       -0.3414
      7 N         143.8111  144.7137  163.3574 N.ar    1  UNL1       -0.2265
      8 C         144.4292  144.2089  164.6275 C.ar    1  UNL1        0.1193
      9 C         144.0491  142.8600  165.1622 C.ar    1  UNL1        0.1020
     10 N         143.0507  142.0160  164.4268 N.ar    1  UNL1       -0.2885
     11 H         141.5393  143.8204  160.8694 H       1  UNL1        0.1438
     12 H         142.4441  145.2598  161.0011 H       1  UNL1        0.1438
     13 C         142.0154  140.3564  168.0961 C.3     1  UNL1        0.0325
     14 C         142.8212  139.0962  168.2087 C.3     1  UNL1        0.0056
     15 C         143.3226  138.7428  166.8398 C.3     1  UNL1        0.0074
     16 C         142.8267  139.7845  165.8812 C.3     1  UNL1        0.0514
     17 C         143.5631  138.9693  164.8598 C.3     1  UNL1        0.0075
     18 C         142.0188  140.7818  166.6577 C.3     1  UNL1        0.0123
     19 C         140.4705  139.9286  170.1405 C.3     1  UNL1        0.0004
     20 C         141.8357  140.1871  169.5756 C.3     1  UNL1        0.0049
     21 C         143.0213  140.2762  170.4902 C.3     1  UNL1        0.0004
     22 C         141.1721  141.5812  168.2928 C.2     1  UNL1        0.0497
     23 O         139.8434  141.6951  167.6059 O.co2   1  UNL1       -0.5492
     24 O         141.6574  142.6920  169.1763 O.co2   1  UNL1       -0.5492
     25 C         140.6507  141.5614  161.4104 C.ar    1  UNL1        0.0192
     26 C         139.3398  142.2902  161.4368 C.ar    1  UNL1        0.0017
     27 C         138.5060  142.3790  160.1931 C.ar    1  UNL1        0.0046
     28 C         138.9829  141.7392  158.9230 C.ar    1  UNL1        0.0537
     29 C         140.2938  141.0105  158.8967 C.ar    1  UNL1        0.0046
     30 C         141.1276  140.9216  160.1404 C.ar    1  UNL1        0.0017
     31 C         138.1491  141.8281  157.6793 C.2     1  UNL1        0.2505
     32 O         138.0541  143.1246  156.9311 O.2     1  UNL1       -0.2698
     33 N         137.4103  140.6203  157.1839 N.am    1  UNL1       -0.2658
     34 H         137.4727  139.7693  157.6750 H       1  UNL1        0.1566
     35 C         136.5764  140.7091  155.9402 C.ar    1  UNL1        0.1343
     36 C         135.1019  140.9646  156.0424 C.ar    1  UNL1        0.0383
     37 C         134.2681  141.0534  154.7986 C.ar    1  UNL1        0.0757
     38 C         134.9088  140.8866  153.4527 C.ar    1  UNL1        0.0246
     39 C         136.3833  140.6310  153.3505 C.ar    1  UNL1        0.1003
     40 N         137.2171  140.5423  154.5942 N.ar    1  UNL1       -0.2290
     41 C         132.7936  141.3090  154.9009 C.3     1  UNL1        0.4187
     42 F         131.3190  141.5645  155.0033 F       1  UNL1       -0.1659
     43 F         132.7589  141.6898  153.4505 F       1  UNL1       -0.1659
     44 F         132.8282  140.9281  156.3514 F       1  UNL1       -0.1659
@<TRIPOS>UNITY_ATOM_ATTR
23 1
charge -1
@<TRIPOS>BOND
     1    19    20    1
     2    20    21    1
     3    13    20    1
     4    13    22    1
     5    22    23   ar
     6    22    24   ar
     7    13    14    1
     8    14    15    1
     9    15    16    1
    10    16    17    1
    11    16     1    1
    12     1     2   ar
    13     2     3   ar
    14     3    25    1
    15    25    26   ar
    16    26    27   ar
    17    27    28   ar
    18    28    31    1
    19    31    32    2
    20    31    33   am
    21    33    35    1
    22    35    36   ar
    23    36    37   ar
    24    37    41    1
    25    41    42    1
    26    41    43    1
    27    41    44    1
    28    37    38   ar
    29    38    39   ar
    30    39    40   ar
    31    28    29   ar
    32    29    30   ar
    33     3     4   ar
    34     4     5   ar
    35     5     6    1
    36     5     7   ar
    37     7     8   ar
    38     8     9   ar
    39     9    10   ar
    40    16    18    1
    41    18    13    1
    42    10     1   ar
    43    30    25   ar
    44    10     4   ar
    45    40    35   ar
    46    33    34    1
    47     6    11    1
    48     6    12    1
@<TRIPOS>MOLECULE
*****
 44 48 0 0 0
SMALL
GASTEIGER

@<TRIPOS>ATOM
      1 C         142.5242  142.2687  164.1058 C.ar    1  UNL1        0.1235
      2 N         142.9423  141.1521  163.1957 N.ar    1  UNL1       -0.2305
      3 C         142.2084  141.3130  161.8974 C.ar    1  UNL1        0.1013
      4 C         141.3367  142.5289  162.0052 C.ar    1  UNL1        0.1141
      5 C         140.3905  143.1746  161.0368 C.ar    1  UNL1        0.1432
      6 N         140.1954  142.5839  159.6719 N.pl3   1  UNL1       -0.3414
      7 N         139.6395  144.4110  161.4333 N.ar    1  UNL1       -0.2265
      8 C         139.8347  145.0017  162.7982 C.ar    1  UNL1        0.1193
      9 C         140.7809  144.3560  163.7666 C.ar    1  UNL1        0.1020
     10 N         141.5319  143.1197  163.3701 N.ar    1  UNL1       -0.2885
     11 H         140.6883  141.7724  159.4116 H       1  UNL1        0.1438
     12 H         139.5744  143.0077  159.0363 H       1  UNL1        0.1438
     13 C         142.0111  141.2780  167.3518 C.3     1  UNL1        0.0325
     14 C         143.0786  142.1715  167.9106 C.3     1  UNL1        0.0056
     15 C         143.6975  142.9236  166.7697 C.3     1  UNL1        0.0074
     16 C         143.0126  142.4948  165.5060 C.3     1  UNL1        0.0514
     17 C         143.9527  143.4645  164.8536 C.3     1  UNL1        0.0075
     18 C         141.9703  141.4777  165.8658 C.3     1  UNL1        0.0123
     19 C         142.2641  139.5173  169.2455 C.3     1  UNL1        0.0004
     20 C         141.8204  140.8737  168.7837 C.3     1  UNL1        0.0049
     21 C         141.1860  141.8259  169.7537 C.3     1  UNL1        0.0004
     22 C         140.9037  140.2999  167.0925 C.2     1  UNL1        0.0497
     23 O         141.1498  139.1013  166.2248 O.co2   1  UNL1       -0.5492
     24 O         139.5505  140.5205  167.7008 O.co2   1  UNL1       -0.5492
     25 C         142.3256  140.4154  160.7013 C.ar    1  UNL1        0.0192
     26 C         143.4013  140.6577  159.6843 C.ar    1  UNL1        0.0017
     27 C         143.5185  139.7601  158.4882 C.ar    1  UNL1        0.0046
     28 C         142.5601  138.6203  158.3091 C.ar    1  UNL1        0.0537
     29 C         141.4844  138.3780  159.3260 C.ar    1  UNL1        0.0046
     30 C         141.3672  139.2756  160.5221 C.ar    1  UNL1        0.0017
     31 C         142.6773  137.7227  157.1130 C.2     1  UNL1        0.2505
     32 O         143.8723  137.8256  156.2123 O.2     1  UNL1       -0.2698
     33 N         141.5994  136.7223  156.8177 N.am    1  UNL1       -0.2658
     34 H         140.8151  136.6548  157.4089 H       1  UNL1        0.1566
     35 C         141.7165  135.8246  155.6216 C.ar    1  UNL1        0.1343
     36 C         142.4622  134.5274  155.7274 C.ar    1  UNL1        0.0383
     37 C         142.5792  133.6299  154.5313 C.ar    1  UNL1        0.0757
     38 C         141.9506  134.0295  153.2293 C.ar    1  UNL1        0.0246
     39 C         141.2049  135.3267  153.1235 C.ar    1  UNL1        0.1003
     40 N         141.0878  136.2243  154.3196 N.ar    1  UNL1       -0.2290
     41 C         143.3249  132.3327  154.6372 C.3     1  UNL1        0.4187
     42 F         144.0707  131.0355  154.7432 F       1  UNL1       -0.1659
     43 F         142.4821  131.7583  153.5374 F       1  UNL1       -0.1659
     44 F         144.1678  132.9071  155.7371 F       1  UNL1       -0.1659
@<TRIPOS>UNITY_ATOM_ATTR
23 1
charge -1
@<TRIPOS>BOND
     1    19    20    1
     2    20    21    1
     3    13    20    1
     4    13    22    1
     5    22    23   ar
     6    22    24   ar
     7    13    14    1
     8    14    15    1
     9    15    16    1
    10    16    17    1
    11    16     1    1
    12     1     2   ar
    13     2     3   ar
    14     3    25    1
    15    25    26   ar
    16    26    27   ar
    17    27    28   ar
    18    28    31    1
    19    31    32    2
    20    31    33   am
    21    33    35    1
    22    35    36   ar
    23    36    37   ar
    24    37    41    1
    25    41    42    1
    26    41    43    1
    27    41    44    1
    28    37    38   ar
    29    38    39   ar
    30    39    40   ar
    31    28    29   ar
    32    29    30   ar
    33     3     4   ar
    34     4     5   ar
    35     5     6    1
    36     5     7   ar
    37     7     8   ar
    38     8     9   ar
    39     9    10   ar
    40    16    18    1
    41    18    13    1
    42    10     1   ar
    43    30    25   ar
    44    10     4   ar
    45    40    35   ar
    46    33    34    1
    47     6    11    1
    48     6    12    1
@<TRIPOS>MOLECULE
*****
 44 48 0 0 0
SMALL
GASTEIGER

@<TRIPOS>ATOM
      1 C         141.7524  137.2930  156.2444 C.ar    1  UNL1        0.1235
      2 N         141.1301  137.5245  157.5894 N.ar    1  UNL1       -0.2305
      3 C         141.9295  138.5799  158.2945 C.ar    1  UNL1        0.1013
      4 C         143.0458  139.0007  157.3852 C.ar    1  UNL1        0.1141
      5 C         144.1477  140.0054  157.5473 C.ar    1  UNL1        0.1432
      6 N         144.2571  140.8008  158.8143 N.pl3   1  UNL1       -0.3414
      7 N         145.1403  140.2147  156.4423 N.ar    1  UNL1       -0.2265
      8 C         145.0309  139.4193  155.1753 C.ar    1  UNL1        0.1193
      9 C         143.9289  138.4146  155.0132 C.ar    1  UNL1        0.1020
     10 N         142.9364  138.2053  156.1181 N.ar    1  UNL1       -0.2885
     11 H         143.6057  140.6634  159.5396 H       1  UNL1        0.1438
     12 H         144.9804  141.4602  158.9207 H       1  UNL1        0.1438
     13 C         141.9731  133.9977  155.3095 C.3     1  UNL1        0.0325
     14 C         141.0781  134.1606  154.1168 C.3     1  UNL1        0.0056
     15 C         140.6465  135.5959  154.0538 C.3     1  UNL1        0.0074
     16 C         141.2747  136.3200  155.2075 C.3     1  UNL1        0.0514
     17 C         140.5547  137.5111  154.6482 C.3     1  UNL1        0.0075
     18 C         142.0946  135.3322  155.9836 C.3     1  UNL1        0.0123
     19 C         140.8196  131.6998  154.9368 C.3     1  UNL1        0.0004
     20 C         142.0416  132.5666  154.8653 C.3     1  UNL1        0.0049
     21 C         143.3323  132.0024  154.3496 C.3     1  UNL1        0.0004
     22 C         142.8824  133.5356  156.4093 C.2     1  UNL1        0.0497
     23 O         144.1256  134.3111  156.7302 O.co2   1  UNL1       -0.5492
     24 O         142.5484  132.2979  157.1882 O.co2   1  UNL1       -0.5492
     25 C         141.6598  139.1198  159.6677 C.ar    1  UNL1        0.0192
     26 C         140.8211  140.3518  159.8380 C.ar    1  UNL1        0.0017
     27 C         140.5515  140.8916  161.2112 C.ar    1  UNL1        0.0046
     28 C         141.1205  140.1996  162.4143 C.ar    1  UNL1        0.0537
     29 C         141.9592  138.9677  162.2440 C.ar    1  UNL1        0.0046
     30 C         142.2288  138.4278  160.8707 C.ar    1  UNL1        0.0017
     31 C         140.8509  140.7395  163.7875 C.2     1  UNL1        0.2505
     32 O         139.7353  141.7189  164.0027 O.2     1  UNL1       -0.2698
     33 N         141.6969  140.2999  164.9455 N.am    1  UNL1       -0.2658
     34 H         142.4290  139.6571  164.8043 H       1  UNL1        0.1566
     35 C         141.4273  140.8397  166.3189 C.ar    1  UNL1        0.1343
     36 C         140.2767  140.3084  167.1211 C.ar    1  UNL1        0.0383
     37 C         140.0072  140.8483  168.4944 C.ar    1  UNL1        0.0757
     38 C         140.8884  141.9195  169.0654 C.ar    1  UNL1        0.0246
     39 C         142.0390  142.4508  168.2632 C.ar    1  UNL1        0.1003
     40 N         142.3085  141.9109  166.8899 N.ar    1  UNL1       -0.2290
     41 C         138.8565  140.3170  169.2966 C.3     1  UNL1        0.4187
     42 F         137.7057  139.7855  170.0988 F       1  UNL1       -0.1659
     43 F         139.1397  141.3250  170.3707 F       1  UNL1       -0.1659
     44 F         138.5732  139.3089  168.2225 F       1  UNL1       -0.1659
@<TRIPOS>UNITY_ATOM_ATTR
23 1
charge -1
@<TRIPOS>BOND
     1    19    20    1
     2    20    21    1
     3    13    20    1
     4    13    22    1
     5    22    23   ar
     6    22    24   ar
     7    13    14    1
     8    14    15    1
     9    15    16    1
    10    16    17    1
    11    16     1    1
    12     1     2   ar
    13     2     3   ar
    14     3    25    1
    15    25    26   ar
    16    26    27   ar
    17    27    28   ar
    18    28    31    1
    19    31    32    2
    20    31    33   am
    21    33    35    1
    22    35    36   ar
    23    36    37   ar
    24    37    41    1
    25    41    42    1
    26    41    43    1
    27    41    44    1
    28    37    38   ar
    29    38    39   ar
    30    39    40   ar
    31    28    29   ar
    32    29    30   ar
    33     3     4   ar
    34     4     5   ar
    35     5     6    1
    36     5     7   ar
    37     7     8   ar
    38     8     9   ar
    39     9    10   ar
    40    16    18    1
    41    18    13    1
    42    10     1   ar
    43    30    25   ar
    44    10     4   ar
    45    40    35   ar
    46    33    34    1
    47     6    11    1
    48     6    12    1
@<TRIPOS>MOLECULE
*****
 44 48 0 0 0
SMALL
GASTEIGER

@<TRIPOS>ATOM
      1 C         140.5126  142.0157  163.1697 C.ar    1  UNL1        0.1235
      2 N         141.4719  141.3196  162.2505 N.ar    1  UNL1       -0.2305
      3 C         141.8114  142.2626  161.1344 C.ar    1  UNL1        0.1013
      4 C         141.0618  143.5414  161.3639 C.ar    1  UNL1        0.1141
      5 C         141.0064  144.8251  160.5900 C.ar    1  UNL1        0.1432
      6 N         141.8092  144.9777  159.3321 N.pl3   1  UNL1       -0.3414
      7 N         140.1484  145.9562  161.0739 N.ar    1  UNL1       -0.2265
      8 C         139.3456  145.8037  162.3318 C.ar    1  UNL1        0.1193
      9 C         139.4010  144.5200  163.1058 C.ar    1  UNL1        0.1020
     10 N         140.2590  143.3889  162.6218 N.ar    1  UNL1       -0.2885
     11 H         142.3723  144.2353  159.0144 H       1  UNL1        0.1438
     12 H         141.7728  145.8203  158.8241 H       1  UNL1        0.1438
     13 C         141.3054  141.0494  166.3665 C.3     1  UNL1        0.0325
     14 C         139.9070  140.6240  166.7038 C.3     1  UNL1        0.0056
     15 C         139.0459  140.8652  165.4994 C.3     1  UNL1        0.0074
     16 C         139.9121  141.4398  164.4178 C.3     1  UNL1        0.0514
     17 C         138.6412  141.4463  163.6211 C.3     1  UNL1        0.0075
     18 C         141.3085  141.5536  164.9538 C.3     1  UNL1        0.0123
     19 C         142.5212  139.4508  168.0145 C.3     1  UNL1        0.0004
     20 C         141.6078  140.6152  167.7701 C.3     1  UNL1        0.0049
     21 C         140.9967  141.3453  168.9292 C.3     1  UNL1        0.0004
     22 C         142.7669  141.3841  166.3227 C.2     1  UNL1        0.0497
     23 O         143.3130  142.4748  167.1958 O.co2   1  UNL1       -0.5492
     24 O         143.6823  140.6281  165.4059 O.co2   1  UNL1       -0.5492
     25 C         142.7378  141.9769  159.9898 C.ar    1  UNL1        0.0192
     26 C         144.1047  142.5939  159.9593 C.ar    1  UNL1        0.0017
     27 C         145.0311  142.3082  158.8146 C.ar    1  UNL1        0.0046
     28 C         144.5907  141.4055  157.7006 C.ar    1  UNL1        0.0537
     29 C         143.2238  140.7885  157.7312 C.ar    1  UNL1        0.0046
     30 C         142.2974  141.0742  158.8758 C.ar    1  UNL1        0.0017
     31 C         145.5171  141.1198  156.5559 C.2     1  UNL1        0.2505
     32 O         145.5854  139.7395  155.9729 O.2     1  UNL1       -0.2698
     33 N         146.3751  142.2145  155.9944 N.am    1  UNL1       -0.2658
     34 H         146.3302  143.1205  156.3771 H       1  UNL1        0.1566
     35 C         147.3015  141.9289  154.8498 C.ar    1  UNL1        0.1343
     36 C         148.7862  141.9553  155.0619 C.ar    1  UNL1        0.0383
     37 C         149.7126  141.6697  153.9172 C.ar    1  UNL1        0.0757
     38 C         149.1543  141.3577  152.5604 C.ar    1  UNL1        0.0246
     39 C         147.6696  141.3312  152.3483 C.ar    1  UNL1        0.1003
     40 N         146.7432  141.6169  153.4930 N.ar    1  UNL1       -0.2290
     41 C         151.1972  141.6961  154.1294 C.3     1  UNL1        0.4187
     42 F         152.6820  141.7226  154.3417 F       1  UNL1       -0.1659
     43 F         151.4052  141.1688  152.7406 F       1  UNL1       -0.1659
     44 F         150.9894  142.2235  155.5182 F       1  UNL1       -0.1659
@<TRIPOS>UNITY_ATOM_ATTR
23 1
charge -1
@<TRIPOS>BOND
     1    19    20    1
     2    20    21    1
     3    13    20    1
     4    13    22    1
     5    22    23   ar
     6    22    24   ar
     7    13    14    1
     8    14    15    1
     9    15    16    1
    10    16    17    1
    11    16     1    1
    12     1     2   ar
    13     2     3   ar
    14     3    25    1
    15    25    26   ar
    16    26    27   ar
    17    27    28   ar
    18    28    31    1
    19    31    32    2
    20    31    33   am
    21    33    35    1
    22    35    36   ar
    23    36    37   ar
    24    37    41    1
    25    41    42    1
    26    41    43    1
    27    41    44    1
    28    37    38   ar
    29    38    39   ar
    30    39    40   ar
    31    28    29   ar
    32    29    30   ar
    33     3     4   ar
    34     4     5   ar
    35     5     6    1
    36     5     7   ar
    37     7     8   ar
    38     8     9   ar
    39     9    10   ar
    40    16    18    1
    41    18    13    1
    42    10     1   ar
    43    30    25   ar
    44    10     4   ar
    45    40    35   ar
    46    33    34    1
    47     6    11    1
    48     6    12    1
@<TRIPOS>MOLECULE
*****
 44 48 0 0 0
SMALL
GASTEIGER

@<TRIPOS>ATOM
      1 C         140.3113  142.8412  163.8075 C.ar    1  UNL1        0.1235
      2 N         140.7083  141.5703  163.1166 N.ar    1  UNL1       -0.2305
      3 C         140.8071  141.8532  161.6468 C.ar    1  UNL1        0.1013
      4 C         140.4712  143.2989  161.4294 C.ar    1  UNL1        0.1141
      5 C         140.4048  144.1381  160.1879 C.ar    1  UNL1        0.1432
      6 N         140.7112  143.5275  158.8525 N.pl3   1  UNL1       -0.3414
      7 N         140.0319  145.5880  160.2819 N.ar    1  UNL1       -0.2265
      8 C         139.7255  146.1986  161.6173 C.ar    1  UNL1        0.1193
      9 C         139.7919  145.3593  162.8587 C.ar    1  UNL1        0.1020
     10 N         140.1648  143.9095  162.7648 N.ar    1  UNL1       -0.2885
     11 H         140.9559  142.5759  158.7909 H       1  UNL1        0.1438
     12 H         140.6676  144.0784  158.0377 H       1  UNL1        0.1438
     13 C         141.6713  142.0456  166.8569 C.3     1  UNL1        0.0325
     14 C         140.6031  142.7482  167.6414 C.3     1  UNL1        0.0056
     15 C         139.6309  143.3463  166.6682 C.3     1  UNL1        0.0074
     16 C         140.0982  143.0135  165.2822 C.3     1  UNL1        0.0514
     17 C         138.8817  143.7813  164.8574 C.3     1  UNL1        0.0075
     18 C         141.3593  142.2096  165.3989 C.3     1  UNL1        0.0123
     19 C         141.5468  140.7096  169.0816 C.3     1  UNL1        0.0004
     20 C         142.2311  141.7206  168.2100 C.3     1  UNL1        0.0049
     21 C         143.4751  142.4065  168.6916 C.3     1  UNL1        0.0004
     22 C         142.8566  141.2752  166.3553 C.2     1  UNL1        0.0497
     23 O         143.9367  141.9771  165.5868 O.co2   1  UNL1       -0.5492
     24 O         142.9616  139.8029  166.6223 O.co2   1  UNL1       -0.5492
     25 C         141.1769  140.8641  160.5815 C.ar    1  UNL1        0.0192
     26 C         142.6109  140.7053  160.1707 C.ar    1  UNL1        0.0017
     27 C         142.9807  139.7162  159.1053 C.ar    1  UNL1        0.0046
     28 C         141.9167  138.8859  158.4508 C.ar    1  UNL1        0.0537
     29 C         140.4828  139.0447  158.8616 C.ar    1  UNL1        0.0046
     30 C         140.1130  140.0338  159.9270 C.ar    1  UNL1        0.0017
     31 C         142.2865  137.8968  157.3855 C.2     1  UNL1        0.2505
     32 O         143.6193  137.9918  156.7039 O.2     1  UNL1       -0.2698
     33 N         141.3234  136.8128  157.0018 N.am    1  UNL1       -0.2658
     34 H         140.4486  136.7504  157.4491 H       1  UNL1        0.1566
     35 C         141.6931  135.8236  155.9364 C.ar    1  UNL1        0.1343
     36 C         142.6425  134.7050  156.2484 C.ar    1  UNL1        0.0383
     37 C         143.0122  133.7159  155.1830 C.ar    1  UNL1        0.0757
     38 C         142.4325  133.8454  153.8057 C.ar    1  UNL1        0.0246
     39 C         141.4831  134.9640  153.4937 C.ar    1  UNL1        0.1003
     40 N         141.1134  135.9531  154.5591 N.ar    1  UNL1       -0.2290
     41 C         143.9616  132.5973  155.4951 C.3     1  UNL1        0.4187
     42 F         144.9110  131.4787  155.8073 F       1  UNL1       -0.1659
     43 F         143.5662  131.9068  154.2236 F       1  UNL1       -0.1659
     44 F         144.3570  133.2877  156.7668 F       1  UNL1       -0.1659
@<TRIPOS>UNITY_ATOM_ATTR
23 1
charge -1
@<TRIPOS>BOND
     1    19    20    1
     2    20    21    1
     3    13    20    1
     4    13    22    1
     5    22    23   ar
     6    22    24   ar
     7    13    14    1
     8    14    15    1
     9    15    16    1
    10    16    17    1
    11    16     1    1
    12     1     2   ar
    13     2     3   ar
    14     3    25    1
    15    25    26   ar
    16    26    27   ar
    17    27    28   ar
    18    28    31    1
    19    31    32    2
    20    31    33   am
    21    33    35    1
    22    35    36   ar
    23    36    37   ar
    24    37    41    1
    25    41    42    1
    26    41    43    1
    27    41    44    1
    28    37    38   ar
    29    38    39   ar
    30    39    40   ar
    31    28    29   ar
    32    29    30   ar
    33     3     4   ar
    34     4     5   ar
    35     5     6    1
    36     5     7   ar
    37     7     8   ar
    38     8     9   ar
    39     9    10   ar
    40    16    18    1
    41    18    13    1
    42    10     1   ar
    43    30    25   ar
    44    10     4   ar
    45    40    35   ar
    46    33    34    1
    47     6    11    1
    48     6    12    1
@<TRIPOS>MOLECULE
*****
 44 48 0 0 0
SMALL
GASTEIGER

@<TRIPOS>ATOM
      1 C         138.3326  142.2031  157.4424 C.ar    1  UNL1        0.1235
      2 N         138.5405  142.5274  158.8921 N.ar    1  UNL1       -0.2305
      3 C         139.0562  141.2946  159.5734 C.ar    1  UNL1        0.1013
      4 C         139.1670  140.2084  158.5448 C.ar    1  UNL1        0.1141
      5 C         139.6173  138.7806  158.6374 C.ar    1  UNL1        0.1432
      6 N         140.0645  138.2191  159.9544 N.pl3   1  UNL1       -0.3414
      7 N         139.6203  137.9143  157.4128 N.ar    1  UNL1       -0.2265
      8 C         139.1730  138.4759  156.0958 C.ar    1  UNL1        0.1193
      9 C         138.7227  139.9036  156.0032 C.ar    1  UNL1        0.1020
     10 N         138.7197  140.7699  157.2278 N.ar    1  UNL1       -0.2885
     11 H         140.0625  138.7877  160.7581 H       1  UNL1        0.1438
     12 H         140.3601  137.2820  160.0152 H       1  UNL1        0.1438
     13 C         139.1853  145.0346  155.6996 C.3     1  UNL1        0.0325
     14 C         137.9086  145.0692  154.9128 C.3     1  UNL1        0.0056
     15 C         137.0687  143.9022  155.3406 C.3     1  UNL1        0.0074
     16 C         137.8263  143.1464  156.3917 C.3     1  UNL1        0.0514
     17 C         136.6241  142.2495  156.3894 C.3     1  UNL1        0.0075
     18 C         139.1344  143.8463  156.6136 C.3     1  UNL1        0.0123
     19 C         138.8495  147.5709  155.2479 C.3     1  UNL1        0.0004
     20 C         139.5176  146.2696  154.9159 C.3     1  UNL1        0.0049
     21 C         140.5179  146.2034  153.8001 C.3     1  UNL1        0.0004
     22 C         140.5314  145.2582  156.3226 C.2     1  UNL1        0.0497
     23 O         140.7198  146.3559  157.3274 O.co2   1  UNL1       -0.5492
     24 O         141.6890  144.3841  155.9407 O.co2   1  UNL1       -0.5492
     25 C         139.4007  141.1698  161.0280 C.ar    1  UNL1        0.0192
     26 C         138.3626  140.7088  162.0078 C.ar    1  UNL1        0.0017
     27 C         138.7071  140.5841  163.4623 C.ar    1  UNL1        0.0046
     28 C         140.0896  140.9203  163.9372 C.ar    1  UNL1        0.0537
     29 C         141.1277  141.3812  162.9574 C.ar    1  UNL1        0.0046
     30 C         140.7832  141.5060  161.5028 C.ar    1  UNL1        0.0017
     31 C         140.4341  140.7955  165.3917 C.2     1  UNL1        0.2505
     32 O         139.3429  140.6593  166.4119 O.2     1  UNL1       -0.2698
     33 N         141.8698  140.8070  165.8260 N.am    1  UNL1       -0.2658
     34 H         142.5859  140.8963  165.1564 H       1  UNL1        0.1566
     35 C         142.2144  140.6822  167.2806 C.ar    1  UNL1        0.1343
     36 C         142.5960  141.9004  168.0682 C.ar    1  UNL1        0.0383
     37 C         142.9406  141.7756  169.5227 C.ar    1  UNL1        0.0757
     38 C         142.9035  140.4325  170.1897 C.ar    1  UNL1        0.0246
     39 C         142.5219  139.2143  169.4021 C.ar    1  UNL1        0.1003
     40 N         142.1773  139.3391  167.9475 N.ar    1  UNL1       -0.2290
     41 C         143.3221  142.9938  170.3103 C.3     1  UNL1        0.4187
     42 F         143.7037  144.2121  171.0978 F       1  UNL1       -0.1659
     43 F         144.7652  142.5920  170.2328 F       1  UNL1       -0.1659
     44 F         141.8790  143.3957  170.3878 F       1  UNL1       -0.1659
@<TRIPOS>UNITY_ATOM_ATTR
23 1
charge -1
@<TRIPOS>BOND
     1    19    20    1
     2    20    21    1
     3    13    20    1
     4    13    22    1
     5    22    23   ar
     6    22    24   ar
     7    13    14    1
     8    14    15    1
     9    15    16    1
    10    16    17    1
    11    16     1    1
    12     1     2   ar
    13     2     3   ar
    14     3    25    1
    15    25    26   ar
    16    26    27   ar
    17    27    28   ar
    18    28    31    1
    19    31    32    2
    20    31    33   am
    21    33    35    1
    22    35    36   ar
    23    36    37   ar
    24    37    41    1
    25    41    42    1
    26    41    43    1
    27    41    44    1
    28    37    38   ar
    29    38    39   ar
    30    39    40   ar
    31    28    29   ar
    32    29    30   ar
    33     3     4   ar
    34     4     5   ar
    35     5     6    1
    36     5     7   ar
    37     7     8   ar
    38     8     9   ar
    39     9    10   ar
    40    16    18    1
    41    18    13    1
    42    10     1   ar
    43    30    25   ar
    44    10     4   ar
    45    40    35   ar
    46    33    34    1
    47     6    11    1
    48     6    12    1
