@<TRIPOS>MOLECULE
*****
 39 42 0 0 0
SMALL
GASTEIGER

@<TRIPOS>ATOM
      1 C         139.9858  138.2457  158.0931 C.3     1  UNL1        0.1183
      2 N         139.3398  139.0792  159.1598 N.am    1  UNL1       -0.2425
      3 C         139.0732  138.4901  160.5133 C.3     1  UNL1        0.1183
      4 C         138.4272  139.3236  161.5800 C.3     1  UNL1        0.1146
      5 C         138.6035  138.0350  162.3273 C.3     1  UNL1        0.0252
      6 C         138.0479  140.7462  161.2934 C.3     1  UNL1        0.2040
      7 O         138.3146  141.3353  159.9400 O.3     1  UNL1       -0.4351
      8 C         138.9605  140.5018  158.8732 C.2     1  UNL1        0.4049
      9 O         139.2272  141.0910  157.5197 O.2     1  UNL1       -0.2262
     10 N         137.8425  139.7095  162.9063 N.am    1  UNL1       -0.2867
     11 C         138.7282  139.8258  164.1113 C.2     1  UNL1        0.3059
     12 O         140.1988  139.5563  163.9899 O.2     1  UNL1       -0.2524
     13 N         138.1433  140.2118  165.4376 N.am    1  UNL1       -0.2485
     14 H         136.8773  139.8864  162.9860 H       1  UNL1        0.1510
     15 H         137.1781  140.3887  165.5173 H       1  UNL1        0.1583
     16 C         139.0291  140.3281  166.6425 C.ar    1  UNL1        0.1664
     17 N         140.2134  141.2382  166.7816 N.ar    1  UNL1       -0.2283
     18 C         140.8025  141.0274  168.1448 C.ar    1  UNL1        0.0667
     19 C         139.9822  139.9870  168.8484 C.ar    1  UNL1        0.0528
     20 S         138.8863  139.5549  167.9199 S.2     1  UNL1       -0.0511
     21 C         142.0013  141.7331  168.7061 C.3     1  UNL1        0.0360
     22 C         142.8000  140.4688  168.5897 C.3     1  UNL1        0.0059
     23 C         141.2025  142.9974  168.8225 C.3     1  UNL1        0.0059
     24 C         143.2000  142.4388  169.2673 C.3     1  UNL1        0.0059
     25 C         137.4019  141.5797  162.3601 C.3     1  UNL1        0.1181
     26 N         138.1764  142.6790  163.0248 N.3     1  UNL1       -0.2696
     27 C         137.5912  143.4038  164.2005 C.3     1  UNL1        0.0722
     28 C         138.3657  144.5031  164.8651 C.3     1  UNL1        0.0174
     29 C         139.7252  144.8777  164.3541 C.3     1  UNL1        0.0031
     30 C         140.3104  144.1529  163.1783 C.3     1  UNL1        0.0204
     31 C         139.5360  143.0536  162.5137 C.3     1  UNL1        0.0725
     32 C         141.6700  144.5275  162.6673 C.3     1  UNL1        0.0277
     33 C         142.8644  143.6986  163.0360 C.ar    1  UNL1       -0.0220
     34 C         143.7693  143.1681  161.9636 C.ar    1  UNL1       -0.0020
     35 C         144.9637  142.3392  162.3324 C.ar    1  UNL1        0.0293
     36 C         145.2535  142.0406  163.7735 C.ar    1  UNL1        0.1401
     37 F         146.4479  141.2117  164.1423 F       1  UNL1       -0.2042
     38 C         144.3487  142.5710  164.8459 C.ar    1  UNL1        0.0293
     39 C         143.1542  143.4000  164.4772 C.ar    1  UNL1       -0.0020
@<TRIPOS>BOND
     1     1     2    1
     2     2     3    1
     3     3     4    1
     4     4     5    1
     5     4    10    1
     6    10    11   am
     7    11    12    2
     8    11    13   am
     9    13    16    1
    10    16    17   ar
    11    17    18   ar
    12    18    21    1
    13    21    22    1
    14    21    23    1
    15    21    24    1
    16    18    19   ar
    17    19    20   ar
    18     4     6    1
    19     6    25    1
    20    25    26    1
    21    26    27    1
    22    27    28    1
    23    28    29    1
    24    29    30    1
    25    30    32    1
    26    32    33    1
    27    33    34   ar
    28    34    35   ar
    29    35    36   ar
    30    36    37    1
    31    36    38   ar
    32    38    39   ar
    33    30    31    1
    34     6     7    1
    35     7     8    1
    36     8     9    2
    37     8     2   am
    38    20    16   ar
    39    31    26    1
    40    39    33   ar
    41    10    14    1
    42    13    15    1
@<TRIPOS>MOLECULE
*****
 39 42 0 0 0
SMALL
GASTEIGER

@<TRIPOS>ATOM
      1 C         142.1850  143.8558  155.9523 C.3     1  UNL1        0.1183
      2 N         141.2600  143.5717  157.0985 N.am    1  UNL1       -0.2425
      3 C         141.1223  142.1729  157.6221 C.3     1  UNL1        0.1183
      4 C         140.1973  141.8888  158.7683 C.3     1  UNL1        0.1146
      5 C         140.7272  140.5089  158.5130 C.3     1  UNL1        0.0252
      6 C         139.4101  143.0035  159.3909 C.3     1  UNL1        0.2040
      7 O         139.5479  144.4024  158.8672 O.3     1  UNL1       -0.4351
      8 C         140.4729  144.6864  157.7211 C.2     1  UNL1        0.4049
      9 O         140.6106  146.0854  157.1974 O.2     1  UNL1       -0.2262
     10 N         139.4564  141.1254  159.8258 N.am    1  UNL1       -0.2867
     11 C         140.2053  140.5109  160.9710 C.2     1  UNL1        0.3059
     12 O         141.6954  140.6598  161.0587 O.2     1  UNL1       -0.2524
     13 N         139.4643  139.7476  162.0284 N.am    1  UNL1       -0.2485
     14 H         138.4784  141.0277  159.7682 H       1  UNL1        0.1510
     15 H         138.4863  139.6498  161.9709 H       1  UNL1        0.1583
     16 C         140.2134  139.1331  163.1735 C.ar    1  UNL1        0.1664
     17 N         140.7613  139.8651  164.3627 N.ar    1  UNL1       -0.2283
     18 C         141.4326  138.8633  165.2548 C.ar    1  UNL1        0.0667
     19 C         141.2996  137.5121  164.6169 C.ar    1  UNL1        0.0528
     20 S         140.5460  137.6789  163.3306 S.2     1  UNL1       -0.0511
     21 C         142.1169  139.1604  166.5561 C.3     1  UNL1        0.0360
     22 C         143.3396  138.4341  166.0790 C.3     1  UNL1        0.0059
     23 C         140.8942  139.8866  167.0332 C.3     1  UNL1        0.0059
     24 C         142.8011  139.4575  167.8575 C.3     1  UNL1        0.0059
     25 C         138.4851  142.7195  160.5370 C.3     1  UNL1        0.1181
     26 N         138.7071  143.3852  161.8627 N.3     1  UNL1       -0.2696
     27 C         137.5541  143.5950  162.7991 C.3     1  UNL1        0.0722
     28 C         137.7761  144.2607  164.1247 C.3     1  UNL1        0.0174
     29 C         139.1511  144.7167  164.5142 C.3     1  UNL1        0.0031
     30 C         140.3040  144.5069  163.5779 C.3     1  UNL1        0.0204
     31 C         140.0820  143.8411  162.2521 C.3     1  UNL1        0.0725
     32 C         141.6790  144.9628  163.9673 C.3     1  UNL1        0.0277
     33 C         142.8128  143.9815  164.0017 C.ar    1  UNL1       -0.0220
     34 C         142.9378  143.0195  165.1458 C.ar    1  UNL1       -0.0020
     35 C         144.0717  142.0381  165.1802 C.ar    1  UNL1        0.0293
     36 C         145.0807  142.0187  164.0704 C.ar    1  UNL1        0.1401
     37 F         146.2146  141.0374  164.1047 F       1  UNL1       -0.2042
     38 C         144.9558  142.9807  162.9263 C.ar    1  UNL1        0.0293
     39 C         143.8218  143.9621  162.8919 C.ar    1  UNL1       -0.0020
@<TRIPOS>BOND
     1     1     2    1
     2     2     3    1
     3     3     4    1
     4     4     5    1
     5     4    10    1
     6    10    11   am
     7    11    12    2
     8    11    13   am
     9    13    16    1
    10    16    17   ar
    11    17    18   ar
    12    18    21    1
    13    21    22    1
    14    21    23    1
    15    21    24    1
    16    18    19   ar
    17    19    20   ar
    18     4     6    1
    19     6    25    1
    20    25    26    1
    21    26    27    1
    22    27    28    1
    23    28    29    1
    24    29    30    1
    25    30    32    1
    26    32    33    1
    27    33    34   ar
    28    34    35   ar
    29    35    36   ar
    30    36    37    1
    31    36    38   ar
    32    38    39   ar
    33    30    31    1
    34     6     7    1
    35     7     8    1
    36     8     9    2
    37     8     2   am
    38    20    16   ar
    39    31    26    1
    40    39    33   ar
    41    10    14    1
    42    13    15    1
@<TRIPOS>MOLECULE
*****
 39 42 0 0 0
SMALL
GASTEIGER

@<TRIPOS>ATOM
      1 C         140.4905  142.8577  154.7037 C.3     1  UNL1        0.1183
      2 N         140.4688  143.3503  156.1203 N.am    1  UNL1       -0.2425
      3 C         141.7429  143.4242  156.9083 C.3     1  UNL1        0.1183
      4 C         141.7212  143.9167  158.3250 C.3     1  UNL1        0.1146
      5 C         143.1863  143.6351  158.1696 C.3     1  UNL1        0.0252
      6 C         140.4253  144.3355  158.9536 C.3     1  UNL1        0.2040
      7 O         139.1511  144.2616  158.1656 O.3     1  UNL1       -0.4351
      8 C         139.1729  143.7690  156.7490 C.2     1  UNL1        0.4049
      9 O         137.8986  143.6952  155.9610 O.2     1  UNL1       -0.2262
     10 N         142.2084  144.3115  159.6876 N.am    1  UNL1       -0.2867
     11 C         142.6903  143.2621  160.6450 C.2     1  UNL1        0.3059
     12 O         142.6852  141.8179  160.2397 O.2     1  UNL1       -0.2524
     13 N         143.1775  143.6570  162.0077 N.am    1  UNL1       -0.2485
     14 H         142.2118  145.2594  159.9537 H       1  UNL1        0.1510
     15 H         143.1809  144.6049  162.2737 H       1  UNL1        0.1583
     16 C         143.6595  142.6076  162.9650 C.ar    1  UNL1        0.1664
     17 N         142.8100  141.8449  163.9380 N.ar    1  UNL1       -0.2283
     18 C         143.7010  140.9025  164.6918 C.ar    1  UNL1        0.0667
     19 C         145.1011  141.0828  164.1845 C.ar    1  UNL1        0.0528
     20 S         145.0754  142.1366  163.1173 S.2     1  UNL1       -0.0511
     21 C         143.2679  139.9476  165.7644 C.3     1  UNL1        0.0360
     22 C         143.7855  138.7988  164.9506 C.3     1  UNL1        0.0059
     23 C         142.7503  141.0964  166.5782 C.3     1  UNL1        0.0059
     24 C         142.8348  138.9926  166.8370 C.3     1  UNL1        0.0059
     25 C         140.4036  144.8280  160.3703 C.3     1  UNL1        0.1181
     26 N         139.4632  144.2129  161.3639 N.3     1  UNL1       -0.2696
     27 C         138.8853  145.0491  162.4670 C.3     1  UNL1        0.0722
     28 C         137.9450  144.4340  163.4606 C.3     1  UNL1        0.0174
     29 C         137.5824  142.9826  163.3511 C.3     1  UNL1        0.0031
     30 C         138.1602  142.1463  162.2481 C.3     1  UNL1        0.0204
     31 C         139.1007  142.7615  161.2544 C.3     1  UNL1        0.0725
     32 C         137.7977  140.6949  162.1386 C.3     1  UNL1        0.0277
     33 C         138.6588  139.6554  162.7926 C.ar    1  UNL1       -0.0220
     34 C         138.7507  139.5903  164.2884 C.ar    1  UNL1       -0.0020
     35 C         139.6118  138.5507  164.9424 C.ar    1  UNL1        0.0293
     36 C         140.3812  137.5763  164.1007 C.ar    1  UNL1        0.1401
     37 F         141.2423  136.5367  164.7547 F       1  UNL1       -0.2042
     38 C         140.2893  137.6413  162.6049 C.ar    1  UNL1        0.0293
     39 C         139.4282  138.6809  161.9509 C.ar    1  UNL1       -0.0020
@<TRIPOS>BOND
     1     1     2    1
     2     2     3    1
     3     3     4    1
     4     4     5    1
     5     4    10    1
     6    10    11   am
     7    11    12    2
     8    11    13   am
     9    13    16    1
    10    16    17   ar
    11    17    18   ar
    12    18    21    1
    13    21    22    1
    14    21    23    1
    15    21    24    1
    16    18    19   ar
    17    19    20   ar
    18     4     6    1
    19     6    25    1
    20    25    26    1
    21    26    27    1
    22    27    28    1
    23    28    29    1
    24    29    30    1
    25    30    32    1
    26    32    33    1
    27    33    34   ar
    28    34    35   ar
    29    35    36   ar
    30    36    37    1
    31    36    38   ar
    32    38    39   ar
    33    30    31    1
    34     6     7    1
    35     7     8    1
    36     8     9    2
    37     8     2   am
    38    20    16   ar
    39    31    26    1
    40    39    33   ar
    41    10    14    1
    42    13    15    1
@<TRIPOS>MOLECULE
*****
 39 42 0 0 0
SMALL
GASTEIGER

@<TRIPOS>ATOM
      1 C         141.0487  145.3674  155.1082 C.3     1  UNL1        0.1183
      2 N         141.1880  145.2494  156.5971 N.am    1  UNL1       -0.2425
      3 C         142.2042  144.3148  157.1835 C.3     1  UNL1        0.1183
      4 C         142.3435  144.1968  158.6724 C.3     1  UNL1        0.1146
      5 C         143.3956  143.2217  158.2342 C.3     1  UNL1        0.0252
      6 C         141.4666  145.0133  159.5748 C.3     1  UNL1        0.2040
      7 O         140.4505  145.9479  158.9883 O.3     1  UNL1       -0.4351
      8 C         140.3112  146.0659  157.4995 C.2     1  UNL1        0.4049
      9 O         139.2949  147.0006  156.9130 O.2     1  UNL1       -0.2262
     10 N         142.8482  143.7401  160.0090 N.am    1  UNL1       -0.2867
     11 C         142.4240  142.4095  160.5563 C.2     1  UNL1        0.3059
     12 O         141.4949  141.5355  159.7669 O.2     1  UNL1       -0.2524
     13 N         142.9289  141.9528  161.8930 N.am    1  UNL1       -0.2485
     14 H         143.4580  144.3137  160.5271 H       1  UNL1        0.1510
     15 H         143.5386  142.5264  162.4111 H       1  UNL1        0.1583
     16 C         142.5046  140.6222  162.4402 C.ar    1  UNL1        0.1664
     17 N         141.2181  140.3326  163.1552 N.ar    1  UNL1       -0.2283
     18 C         141.2106  138.8790  163.5254 C.ar    1  UNL1        0.0667
     19 C         142.4925  138.2702  163.0392 C.ar    1  UNL1        0.0528
     20 S         143.2922  139.3477  162.3685 S.2     1  UNL1       -0.0511
     21 C         140.1139  138.1604  164.2539 C.3     1  UNL1        0.0360
     22 C         141.0916  137.1094  164.6892 C.3     1  UNL1        0.0059
     23 C         139.1361  139.2113  163.8187 C.3     1  UNL1        0.0059
     24 C         139.0171  137.4417  164.9824 C.3     1  UNL1        0.0059
     25 C         141.6059  144.8953  161.0636 C.3     1  UNL1        0.1181
     26 N         140.5113  144.2637  161.8716 N.3     1  UNL1       -0.2696
     27 C         139.2625  143.7813  161.1950 C.3     1  UNL1        0.0722
     28 C         138.1679  143.1496  162.0029 C.3     1  UNL1        0.0174
     29 C         138.3220  143.0003  163.4875 C.3     1  UNL1        0.0031
     30 C         139.5708  143.4827  164.1641 C.3     1  UNL1        0.0204
     31 C         140.6655  144.1144  163.3562 C.3     1  UNL1        0.0725
     32 C         139.7250  143.3334  165.6487 C.3     1  UNL1        0.0277
     33 C         140.5113  142.1858  166.2094 C.ar    1  UNL1       -0.0220
     34 C         142.0030  142.1521  166.0551 C.ar    1  UNL1       -0.0020
     35 C         142.7893  141.0045  166.6159 C.ar    1  UNL1        0.0293
     36 C         142.0840  139.8904  167.3309 C.ar    1  UNL1        0.1401
     37 F         142.8704  138.7427  167.8916 F       1  UNL1       -0.2042
     38 C         140.5924  139.9239  167.4852 C.ar    1  UNL1        0.0293
     39 C         139.8060  141.0716  166.9245 C.ar    1  UNL1       -0.0020
@<TRIPOS>BOND
     1     1     2    1
     2     2     3    1
     3     3     4    1
     4     4     5    1
     5     4    10    1
     6    10    11   am
     7    11    12    2
     8    11    13   am
     9    13    16    1
    10    16    17   ar
    11    17    18   ar
    12    18    21    1
    13    21    22    1
    14    21    23    1
    15    21    24    1
    16    18    19   ar
    17    19    20   ar
    18     4     6    1
    19     6    25    1
    20    25    26    1
    21    26    27    1
    22    27    28    1
    23    28    29    1
    24    29    30    1
    25    30    32    1
    26    32    33    1
    27    33    34   ar
    28    34    35   ar
    29    35    36   ar
    30    36    37    1
    31    36    38   ar
    32    38    39   ar
    33    30    31    1
    34     6     7    1
    35     7     8    1
    36     8     9    2
    37     8     2   am
    38    20    16   ar
    39    31    26    1
    40    39    33   ar
    41    10    14    1
    42    13    15    1
@<TRIPOS>MOLECULE
*****
 39 42 0 0 0
SMALL
GASTEIGER

@<TRIPOS>ATOM
      1 C         141.9303  140.8577  156.9657 C.3     1  UNL1        0.1183
      2 N         140.9474  141.2818  158.0164 N.am    1  UNL1       -0.2425
      3 C         140.3586  140.2637  158.9473 C.3     1  UNL1        0.1183
      4 C         139.3757  140.6878  159.9980 C.3     1  UNL1        0.1146
      5 C         139.4356  139.2151  160.2767 C.3     1  UNL1        0.0252
      6 C         138.9816  142.1301  160.1179 C.3     1  UNL1        0.2040
      7 O         139.5704  143.1483  159.1870 O.3     1  UNL1       -0.4351
      8 C         140.5533  142.7241  158.1363 C.2     1  UNL1        0.4049
      9 O         141.1422  143.7424  157.2053 O.2     1  UNL1       -0.2262
     10 N         138.4136  140.6004  161.1455 N.am    1  UNL1       -0.2867
     11 C         138.9285  140.4453  162.5459 C.2     1  UNL1        0.3059
     12 O         140.4055  140.3776  162.7987 O.2     1  UNL1       -0.2524
     13 N         137.9663  140.3580  163.6933 N.am    1  UNL1       -0.2485
     14 H         137.4442  140.6449  160.9796 H       1  UNL1        0.1510
     15 H         136.9969  140.4024  163.5274 H       1  UNL1        0.1583
     16 C         138.4812  140.2029  165.0936 C.ar    1  UNL1        0.1664
     17 N         139.2644  141.2248  165.8632 N.ar    1  UNL1       -0.2283
     18 C         139.5706  140.6523  167.2154 C.ar    1  UNL1        0.0667
     19 C         138.9766  139.2764  167.2815 C.ar    1  UNL1        0.0528
     20 S         138.3033  138.9987  165.9701 S.2     1  UNL1       -0.0511
     21 C         140.3363  141.3355  168.3094 C.3     1  UNL1        0.0360
     22 C         140.7091  142.4363  167.3611 C.3     1  UNL1        0.0059
     23 C         139.9636  140.2347  169.2578 C.3     1  UNL1        0.0059
     24 C         141.1021  142.0188  169.4034 C.3     1  UNL1        0.0059
     25 C         137.9987  142.5543  161.1686 C.3     1  UNL1        0.1181
     26 N         138.4613  143.3582  162.3474 N.3     1  UNL1       -0.2696
     27 C         137.5166  143.6450  163.4768 C.3     1  UNL1        0.0722
     28 C         137.9791  144.4489  164.6557 C.3     1  UNL1        0.0174
     29 C         139.3863  144.9660  164.7052 C.3     1  UNL1        0.0031
     30 C         140.3310  144.6792  163.5760 C.3     1  UNL1        0.0204
     31 C         139.8684  143.8752  162.3970 C.3     1  UNL1        0.0725
     32 C         141.7382  145.1963  163.6256 C.3     1  UNL1        0.0277
     33 C         142.8907  144.2363  163.6157 C.ar    1  UNL1       -0.0220
     34 C         143.2971  143.5393  164.8803 C.ar    1  UNL1       -0.0020
     35 C         144.4496  142.5794  164.8705 C.ar    1  UNL1        0.0293
     36 C         145.1958  142.3164  163.5961 C.ar    1  UNL1        0.1401
     37 F         146.3484  141.3565  163.5863 F       1  UNL1       -0.2042
     38 C         144.7895  143.0133  162.3316 C.ar    1  UNL1        0.0293
     39 C         143.6369  143.9733  162.3414 C.ar    1  UNL1       -0.0020
@<TRIPOS>BOND
     1     1     2    1
     2     2     3    1
     3     3     4    1
     4     4     5    1
     5     4    10    1
     6    10    11   am
     7    11    12    2
     8    11    13   am
     9    13    16    1
    10    16    17   ar
    11    17    18   ar
    12    18    21    1
    13    21    22    1
    14    21    23    1
    15    21    24    1
    16    18    19   ar
    17    19    20   ar
    18     4     6    1
    19     6    25    1
    20    25    26    1
    21    26    27    1
    22    27    28    1
    23    28    29    1
    24    29    30    1
    25    30    32    1
    26    32    33    1
    27    33    34   ar
    28    34    35   ar
    29    35    36   ar
    30    36    37    1
    31    36    38   ar
    32    38    39   ar
    33    30    31    1
    34     6     7    1
    35     7     8    1
    36     8     9    2
    37     8     2   am
    38    20    16   ar
    39    31    26    1
    40    39    33   ar
    41    10    14    1
    42    13    15    1
@<TRIPOS>MOLECULE
*****
 39 42 0 0 0
SMALL
GASTEIGER

@<TRIPOS>ATOM
      1 C         138.8940  139.9729  157.6318 C.3     1  UNL1        0.1183
      2 N         139.8556  139.7306  158.7571 N.am    1  UNL1       -0.2425
      3 C         139.3779  139.0922  160.0276 C.3     1  UNL1        0.1183
      4 C         140.3395  138.8498  161.1530 C.3     1  UNL1        0.1146
      5 C         139.0824  138.3038  161.7625 C.3     1  UNL1        0.0252
      6 C         141.7790  139.2458  161.0079 C.3     1  UNL1        0.2040
      7 O         142.2568  139.8842  159.7374 O.3     1  UNL1       -0.4351
      8 C         141.2951  140.1265  158.6120 C.2     1  UNL1        0.4049
      9 O         141.7729  140.7649  157.3415 O.2     1  UNL1       -0.2262
     10 N         140.8645  138.4178  162.4900 N.am    1  UNL1       -0.2867
     11 C         140.5285  139.2092  163.7192 C.2     1  UNL1        0.3059
     12 O         139.6675  140.4328  163.6113 O.2     1  UNL1       -0.2524
     13 N         141.0536  138.7771  165.0562 N.am    1  UNL1       -0.2485
     14 H         141.4297  137.6148  162.5609 H       1  UNL1        0.1510
     15 H         141.6188  137.9741  165.1270 H       1  UNL1        0.1583
     16 C         140.7176  139.5685  166.2853 C.ar    1  UNL1        0.1664
     17 N         141.5978  140.5881  166.9454 N.ar    1  UNL1       -0.2283
     18 C         140.8667  141.1292  168.1381 C.ar    1  UNL1        0.0667
     19 C         139.5345  140.4440  168.2153 C.ar    1  UNL1        0.0528
     20 S         139.4424  139.4794  167.0701 S.2     1  UNL1       -0.0511
     21 C         141.3779  142.1723  169.0872 C.3     1  UNL1        0.0360
     22 C         140.0536  142.1804  169.7916 C.3     1  UNL1        0.0059
     23 C         142.7022  142.1642  168.3828 C.3     1  UNL1        0.0059
     24 C         141.8891  143.2154  170.0362 C.3     1  UNL1        0.0059
     25 C         142.7407  139.0035  162.1332 C.3     1  UNL1        0.1181
     26 N         143.4824  140.1538  162.7468 N.3     1  UNL1       -0.2696
     27 C         144.8626  139.9482  163.2973 C.3     1  UNL1        0.0722
     28 C         145.6044  141.0985  163.9109 C.3     1  UNL1        0.0174
     29 C         144.9661  142.4545  163.9739 C.3     1  UNL1        0.0031
     30 C         143.5860  142.6601  163.4234 C.3     1  UNL1        0.0204
     31 C         142.8442  141.5098  162.8098 C.3     1  UNL1        0.0725
     32 C         142.9478  144.0161  163.4864 C.3     1  UNL1        0.0277
     33 C         141.5167  144.1522  163.9148 C.ar    1  UNL1       -0.0220
     34 C         141.0511  143.5121  165.1889 C.ar    1  UNL1       -0.0020
     35 C         139.6201  143.6482  165.6173 C.ar    1  UNL1        0.0293
     36 C         138.6546  144.4245  164.7716 C.ar    1  UNL1        0.1401
     37 F         137.2236  144.5607  165.2000 F       1  UNL1       -0.2042
     38 C         139.1202  145.0647  163.4975 C.ar    1  UNL1        0.0293
     39 C         140.5513  144.9285  163.0690 C.ar    1  UNL1       -0.0020
@<TRIPOS>BOND
     1     1     2    1
     2     2     3    1
     3     3     4    1
     4     4     5    1
     5     4    10    1
     6    10    11   am
     7    11    12    2
     8    11    13   am
     9    13    16    1
    10    16    17   ar
    11    17    18   ar
    12    18    21    1
    13    21    22    1
    14    21    23    1
    15    21    24    1
    16    18    19   ar
    17    19    20   ar
    18     4     6    1
    19     6    25    1
    20    25    26    1
    21    26    27    1
    22    27    28    1
    23    28    29    1
    24    29    30    1
    25    30    32    1
    26    32    33    1
    27    33    34   ar
    28    34    35   ar
    29    35    36   ar
    30    36    37    1
    31    36    38   ar
    32    38    39   ar
    33    30    31    1
    34     6     7    1
    35     7     8    1
    36     8     9    2
    37     8     2   am
    38    20    16   ar
    39    31    26    1
    40    39    33   ar
    41    10    14    1
    42    13    15    1
@<TRIPOS>MOLECULE
*****
 39 42 0 0 0
SMALL
GASTEIGER

@<TRIPOS>ATOM
      1 C         141.8653  145.8654  157.9592 C.3     1  UNL1        0.1183
      2 N         140.9793  144.9591  158.7615 N.am    1  UNL1       -0.2425
      3 C         140.6681  145.2879  160.1915 C.3     1  UNL1        0.1183
      4 C         139.7821  144.3816  160.9938 C.3     1  UNL1        0.1146
      5 C         140.0858  145.4282  162.0245 C.3     1  UNL1        0.0252
      6 C         139.2074  143.1464  160.3661 C.3     1  UNL1        0.2040
      7 O         139.5186  142.8176  158.9361 O.3     1  UNL1       -0.4351
      8 C         140.4046  143.7239  158.1338 C.2     1  UNL1        0.4049
      9 O         140.7158  143.3951  156.7037 O.2     1  UNL1       -0.2262
     10 N         139.0016  143.8388  162.1541 N.am    1  UNL1       -0.2867
     11 C         139.7192  143.3412  163.3737 C.2     1  UNL1        0.3059
     12 O         141.2174  143.3864  163.4331 O.2     1  UNL1       -0.2524
     13 N         138.9386  142.7985  164.5340 N.am    1  UNL1       -0.2485
     14 H         138.0184  143.8092  162.1151 H       1  UNL1        0.1510
     15 H         137.9553  142.7688  164.4950 H       1  UNL1        0.1583
     16 C         139.6562  142.3009  165.7535 C.ar    1  UNL1        0.1664
     17 N         140.3434  143.1513  166.7805 N.ar    1  UNL1       -0.2283
     18 C         140.9246  142.2417  167.8220 C.ar    1  UNL1        0.0667
     19 C         140.5967  140.8290  167.4387 C.ar    1  UNL1        0.0528
     20 S         139.8128  140.8656  166.1603 S.2     1  UNL1       -0.0511
     21 C         141.6980  142.6696  169.0340 C.3     1  UNL1        0.0360
     22 C         140.4846  143.3790  169.5578 C.3     1  UNL1        0.0059
     23 C         142.9114  141.9601  168.5102 C.3     1  UNL1        0.0059
     24 C         142.4714  143.0974  170.2460 C.3     1  UNL1        0.0059
     25 C         138.3214  142.2401  161.1684 C.3     1  UNL1        0.1181
     26 N         138.7030  140.8034  161.3690 N.3     1  UNL1       -0.2696
     27 C         137.6524  139.7894  161.7129 C.3     1  UNL1        0.0722
     28 C         138.0340  138.3527  161.9135 C.3     1  UNL1        0.0174
     29 C         139.4661  137.9300  161.7703 C.3     1  UNL1        0.0031
     30 C         140.5166  138.9440  161.4265 C.3     1  UNL1        0.0204
     31 C         140.1350  140.3807  161.2258 C.3     1  UNL1        0.0725
     32 C         141.9486  138.5212  161.2833 C.3     1  UNL1        0.0277
     33 C         143.0251  139.2550  162.0267 C.ar    1  UNL1       -0.0220
     34 C         143.4096  138.8222  163.4105 C.ar    1  UNL1       -0.0020
     35 C         144.4861  139.5560  164.1539 C.ar    1  UNL1        0.0293
     36 C         145.1782  140.7226  163.5135 C.ar    1  UNL1        0.1401
     37 F         146.2547  141.4564  164.2569 F       1  UNL1       -0.2042
     38 C         144.7937  141.1554  162.1297 C.ar    1  UNL1        0.0293
     39 C         143.7172  140.4216  161.3863 C.ar    1  UNL1       -0.0020
@<TRIPOS>BOND
     1     1     2    1
     2     2     3    1
     3     3     4    1
     4     4     5    1
     5     4    10    1
     6    10    11   am
     7    11    12    2
     8    11    13   am
     9    13    16    1
    10    16    17   ar
    11    17    18   ar
    12    18    21    1
    13    21    22    1
    14    21    23    1
    15    21    24    1
    16    18    19   ar
    17    19    20   ar
    18     4     6    1
    19     6    25    1
    20    25    26    1
    21    26    27    1
    22    27    28    1
    23    28    29    1
    24    29    30    1
    25    30    32    1
    26    32    33    1
    27    33    34   ar
    28    34    35   ar
    29    35    36   ar
    30    36    37    1
    31    36    38   ar
    32    38    39   ar
    33    30    31    1
    34     6     7    1
    35     7     8    1
    36     8     9    2
    37     8     2   am
    38    20    16   ar
    39    31    26    1
    40    39    33   ar
    41    10    14    1
    42    13    15    1
@<TRIPOS>MOLECULE
*****
 39 42 0 0 0
SMALL
GASTEIGER

@<TRIPOS>ATOM
      1 C         143.1931  141.8175  154.9377 C.3     1  UNL1        0.1183
      2 N         143.5957  142.0550  156.3630 N.am    1  UNL1       -0.2425
      3 C         142.7584  142.9361  157.2420 C.3     1  UNL1        0.1183
      4 C         143.1611  143.1736  158.6673 C.3     1  UNL1        0.1146
      5 C         141.9101  143.9992  158.6089 C.3     1  UNL1        0.0252
      6 C         144.4010  142.5301  159.2136 C.3     1  UNL1        0.2040
      7 O         145.2382  141.6490  158.3346 O.3     1  UNL1       -0.4351
      8 C         144.8356  141.4115  156.9093 C.2     1  UNL1        0.4049
      9 O         145.6729  140.5304  156.0302 O.2     1  UNL1       -0.2262
     10 N         143.1292  143.6979  160.0723 N.am    1  UNL1       -0.2867
     11 C         142.0794  143.2158  161.0291 C.2     1  UNL1        0.3059
     12 O         141.0613  142.2094  160.5809 O.2     1  UNL1       -0.2524
     13 N         142.0476  143.7402  162.4342 N.am    1  UNL1       -0.2485
     14 H         143.7973  144.3584  160.3665 H       1  UNL1        0.1510
     15 H         142.7157  144.4007  162.7284 H       1  UNL1        0.1583
     16 C         140.9977  143.2581  163.3909 C.ar    1  UNL1        0.1664
     17 N         140.9269  141.8925  164.0074 N.ar    1  UNL1       -0.2283
     18 C         139.7198  141.8472  164.8967 C.ar    1  UNL1        0.0667
     19 C         139.0445  143.1851  164.8299 C.ar    1  UNL1        0.0528
     20 S         139.8344  144.0570  163.8993 S.2     1  UNL1       -0.0511
     21 C         139.2674  140.6709  165.7100 C.3     1  UNL1        0.0360
     22 C         140.4730  140.8160  166.5906 C.3     1  UNL1        0.0059
     23 C         138.0618  140.5257  164.8294 C.3     1  UNL1        0.0059
     24 C         138.8150  139.4945  166.5233 C.3     1  UNL1        0.0059
     25 C         144.8036  142.7676  160.6389 C.3     1  UNL1        0.1181
     26 N         144.7336  141.6479  161.6345 N.3     1  UNL1       -0.2696
     27 C         145.3971  141.7912  162.9722 C.3     1  UNL1        0.0722
     28 C         145.3271  140.6715  163.9679 C.3     1  UNL1        0.0174
     29 C         144.5937  139.4085  163.6259 C.3     1  UNL1        0.0031
     30 C         143.9303  139.2652  162.2883 C.3     1  UNL1        0.0204
     31 C         144.0002  140.3849  161.2926 C.3     1  UNL1        0.0725
     32 C         143.1969  138.0022  161.9464 C.3     1  UNL1        0.0277
     33 C         141.6976  137.9944  161.9008 C.ar    1  UNL1       -0.0220
     34 C         140.9835  138.3849  160.6407 C.ar    1  UNL1       -0.0020
     35 C         139.4843  138.3771  160.5951 C.ar    1  UNL1        0.0293
     36 C         138.6990  137.9788  161.8095 C.ar    1  UNL1        0.1401
     37 F         137.1998  137.9710  161.7639 F       1  UNL1       -0.2042
     38 C         139.4130  137.5883  163.0695 C.ar    1  UNL1        0.0293
     39 C         140.9124  137.5961  163.1152 C.ar    1  UNL1       -0.0020
@<TRIPOS>BOND
     1     1     2    1
     2     2     3    1
     3     3     4    1
     4     4     5    1
     5     4    10    1
     6    10    11   am
     7    11    12    2
     8    11    13   am
     9    13    16    1
    10    16    17   ar
    11    17    18   ar
    12    18    21    1
    13    21    22    1
    14    21    23    1
    15    21    24    1
    16    18    19   ar
    17    19    20   ar
    18     4     6    1
    19     6    25    1
    20    25    26    1
    21    26    27    1
    22    27    28    1
    23    28    29    1
    24    29    30    1
    25    30    32    1
    26    32    33    1
    27    33    34   ar
    28    34    35   ar
    29    35    36   ar
    30    36    37    1
    31    36    38   ar
    32    38    39   ar
    33    30    31    1
    34     6     7    1
    35     7     8    1
    36     8     9    2
    37     8     2   am
    38    20    16   ar
    39    31    26    1
    40    39    33   ar
    41    10    14    1
    42    13    15    1
@<TRIPOS>MOLECULE
*****
 39 42 0 0 0
SMALL
GASTEIGER

@<TRIPOS>ATOM
      1 C         137.9287  145.3790  155.0290 C.3     1  UNL1        0.1183
      2 N         138.9067  144.9507  156.0827 N.am    1  UNL1       -0.2425
      3 C         139.0177  143.5029  156.4588 C.3     1  UNL1        0.1183
      4 C         139.9956  143.0745  157.5124 C.3     1  UNL1        0.1146
      5 C         139.3959  141.7461  157.1580 C.3     1  UNL1        0.0252
      6 C         140.8626  144.0939  158.1899 C.3     1  UNL1        0.2040
      7 O         140.7516  145.5417  157.8138 O.3     1  UNL1       -0.4351
      8 C         139.7737  145.9701  156.7602 C.2     1  UNL1        0.4049
      9 O         139.6627  147.4180  156.3841 O.2     1  UNL1       -0.2262
     10 N         140.7653  142.1847  158.4429 N.am    1  UNL1       -0.2867
     11 C         140.0423  141.3880  159.4882 C.2     1  UNL1        0.3059
     12 O         138.5496  141.4811  159.6030 O.2     1  UNL1       -0.2524
     13 N         140.8121  140.4982  160.4187 N.am    1  UNL1       -0.2485
     14 H         141.7450  142.1236  158.3676 H       1  UNL1        0.1510
     15 H         141.7918  140.4371  160.3434 H       1  UNL1        0.1583
     16 C         140.0890  139.7016  161.4639 C.ar    1  UNL1        0.1664
     17 N         139.8311  140.1308  162.8779 N.ar    1  UNL1       -0.2283
     18 C         139.0797  139.0305  163.5667 C.ar    1  UNL1        0.0667
     19 C         138.8731  137.9210  162.5784 C.ar    1  UNL1        0.0528
     20 S         139.4970  138.3359  161.2788 S.2     1  UNL1       -0.0511
     21 C         138.6161  139.0380  164.9933 C.3     1  UNL1        0.0360
     22 C         139.0275  137.6025  165.1346 C.3     1  UNL1        0.0059
     23 C         138.2047  140.4736  164.8519 C.3     1  UNL1        0.0059
     24 C         138.1526  139.0456  166.4198 C.3     1  UNL1        0.0059
     25 C         141.8405  143.6656  159.2435 C.3     1  UNL1        0.1181
     26 N         141.6890  144.1582  160.6522 N.3     1  UNL1       -0.2696
     27 C         140.6425  145.1815  160.9804 C.3     1  UNL1        0.0722
     28 C         140.4910  145.6741  162.3891 C.3     1  UNL1        0.0174
     29 C         141.3860  145.1434  163.4695 C.3     1  UNL1        0.0031
     30 C         142.4324  144.1201  163.1413 C.3     1  UNL1        0.0204
     31 C         142.5840  143.6275  161.7326 C.3     1  UNL1        0.0725
     32 C         143.3274  143.5894  164.2218 C.3     1  UNL1        0.0277
     33 C         143.2573  142.1423  164.6103 C.ar    1  UNL1       -0.0220
     34 C         142.0953  141.6367  165.4130 C.ar    1  UNL1       -0.0020
     35 C         142.0252  140.1896  165.8015 C.ar    1  UNL1        0.0293
     36 C         143.1171  139.2481  165.3874 C.ar    1  UNL1        0.1401
     37 F         143.0470  137.8010  165.7759 F       1  UNL1       -0.2042
     38 C         144.2790  139.7537  164.5847 C.ar    1  UNL1        0.0293
     39 C         144.3491  141.2008  164.1962 C.ar    1  UNL1       -0.0020
@<TRIPOS>BOND
     1     1     2    1
     2     2     3    1
     3     3     4    1
     4     4     5    1
     5     4    10    1
     6    10    11   am
     7    11    12    2
     8    11    13   am
     9    13    16    1
    10    16    17   ar
    11    17    18   ar
    12    18    21    1
    13    21    22    1
    14    21    23    1
    15    21    24    1
    16    18    19   ar
    17    19    20   ar
    18     4     6    1
    19     6    25    1
    20    25    26    1
    21    26    27    1
    22    27    28    1
    23    28    29    1
    24    29    30    1
    25    30    32    1
    26    32    33    1
    27    33    34   ar
    28    34    35   ar
    29    35    36   ar
    30    36    37    1
    31    36    38   ar
    32    38    39   ar
    33    30    31    1
    34     6     7    1
    35     7     8    1
    36     8     9    2
    37     8     2   am
    38    20    16   ar
    39    31    26    1
    40    39    33   ar
    41    10    14    1
    42    13    15    1
