@<TRIPOS>MOLECULE
*****
 22 23 0 0 0
SMALL
GASTEIGER

@<TRIPOS>ATOM
      1 C         141.3831  141.7530  169.7222 C.ar    1  UNL1        0.1219
      2 C         140.1355  141.3953  170.4740 C.ar    1  UNL1        0.0230
      3 C         139.1099  140.5010  169.8430 C.ar    1  UNL1        0.0383
      4 C         139.3319  139.9643  168.4600 C.ar    1  UNL1        0.1386
      5 C         140.5796  140.3220  167.7081 C.ar    1  UNL1        0.0383
      6 C         141.6052  141.2163  168.3392 C.ar    1  UNL1        0.0230
      7 N         143.4344  143.5417  170.9843 N.3     1  UNL1       -0.2035
      8 S         142.4088  142.6473  170.3532 S.O2    1  UNL1        0.0572
      9 O         143.0894  142.8035  169.0257 O.2     1  UNL1       -0.1532
     10 O         141.7281  142.4912  171.6808 O.2     1  UNL1       -0.1532
     11 H         142.9670  144.3208  171.4479 H       1  UNL1        0.1442
     12 H         144.0613  143.9010  170.2644 H       1  UNL1        0.1442
     13 O         138.3063  139.0700  167.8289 O.3     1  UNL1       -0.4755
     14 C         138.2020  138.9859  166.3349 C.3     1  UNL1        0.2054
     15 C         138.5975  137.7249  165.6253 C.3     1  UNL1        0.0488
     16 C         139.2799  137.7975  164.2914 C.3     1  UNL1        0.0212
     17 C         140.0848  139.0092  163.9257 C.3     1  UNL1        0.0722
     18 N         141.4747  139.1769  164.4641 N.3     1  UNL1       -0.2727
     19 C         142.2749  138.1299  165.1808 C.3     1  UNL1        0.0721
     20 C         143.6032  138.7270  165.5401 C.3     1  UNL1        0.0188
     21 C         143.6239  140.1430  165.0455 C.3     1  UNL1        0.0188
     22 C         142.3084  140.4210  164.3806 C.3     1  UNL1        0.0721
@<TRIPOS>BOND
     1     7     8    1
     2     8     9    2
     3     8    10    2
     4     8     1    1
     5     1     2   ar
     6     2     3   ar
     7     3     4   ar
     8     4    13    1
     9    13    14    1
    10    14    15    1
    11    15    16    1
    12    16    17    1
    13    17    18    1
    14    18    19    1
    15    19    20    1
    16    20    21    1
    17    21    22    1
    18     4     5   ar
    19     5     6   ar
    20     6     1   ar
    21    22    18    1
    22     7    11    1
    23     7    12    1
@<TRIPOS>MOLECULE
*****
 22 23 0 0 0
SMALL
GASTEIGER

@<TRIPOS>ATOM
      1 C         141.0272  141.8015  169.7196 C.ar    1  UNL1        0.1219
      2 C         141.0884  140.4378  170.3414 C.ar    1  UNL1        0.0230
      3 C         141.8888  139.3506  169.6876 C.ar    1  UNL1        0.0383
      4 C         142.6280  139.6272  168.4120 C.ar    1  UNL1        0.1386
      5 C         142.5668  140.9908  167.7902 C.ar    1  UNL1        0.0383
      6 C         141.7664  142.0780  168.4441 C.ar    1  UNL1        0.0230
      7 N         139.4265  143.9758  171.0272 N.3     1  UNL1       -0.2035
      8 S         140.2269  142.8886  170.3734 S.O2    1  UNL1        0.0572
      9 O         140.0968  143.5873  169.0525 O.2     1  UNL1       -0.1532
     10 O         140.3569  142.1900  171.6944 O.2     1  UNL1       -0.1532
     11 H         138.6233  143.5665  171.5045 H       1  UNL1        0.1442
     12 H         139.1019  144.6327  170.3177 H       1  UNL1        0.1442
     13 O         143.4284  138.5400  167.7582 O.3     1  UNL1       -0.4755
     14 C         143.5956  138.5247  166.2676 C.3     1  UNL1        0.2054
     15 C         142.4401  138.1509  165.3871 C.3     1  UNL1        0.0488
     16 C         141.9533  139.1097  164.3413 C.3     1  UNL1        0.0212
     17 C         140.6662  139.8525  164.5456 C.3     1  UNL1        0.0722
     18 N         139.6278  139.3099  165.4822 N.3     1  UNL1       -0.2727
     19 C         138.8018  138.0770  165.2641 C.3     1  UNL1        0.0721
     20 C         137.8964  137.9101  166.4484 C.3     1  UNL1        0.0188
     21 C         138.1630  139.0400  167.3984 C.3     1  UNL1        0.0188
     22 C         139.2330  139.9051  166.8012 C.3     1  UNL1        0.0721
@<TRIPOS>BOND
     1     7     8    1
     2     8     9    2
     3     8    10    2
     4     8     1    1
     5     1     2   ar
     6     2     3   ar
     7     3     4   ar
     8     4    13    1
     9    13    14    1
    10    14    15    1
    11    15    16    1
    12    16    17    1
    13    17    18    1
    14    18    19    1
    15    19    20    1
    16    20    21    1
    17    21    22    1
    18     4     5   ar
    19     5     6   ar
    20     6     1   ar
    21    22    18    1
    22     7    11    1
    23     7    12    1
@<TRIPOS>MOLECULE
*****
 22 23 0 0 0
SMALL
GASTEIGER

@<TRIPOS>ATOM
      1 C         141.9470  142.3482  169.0241 C.ar    1  UNL1        0.1219
      2 C         140.6277  142.4588  168.3192 C.ar    1  UNL1        0.0230
      3 C         140.5782  142.4879  166.8203 C.ar    1  UNL1        0.0383
      4 C         141.8482  142.4063  166.0263 C.ar    1  UNL1        0.1386
      5 C         143.1676  142.2957  166.7312 C.ar    1  UNL1        0.0383
      6 C         143.2170  142.2666  168.2301 C.ar    1  UNL1        0.0230
      7 N         142.0459  142.2901  172.0219 N.3     1  UNL1       -0.2035
      8 S         141.9964  142.3192  170.5230 S.O2    1  UNL1        0.0572
      9 O         142.0941  140.8227  170.4908 O.2     1  UNL1       -0.1532
     10 O         141.8987  143.8156  170.5552 O.2     1  UNL1       -0.1532
     11 H         142.8146  142.8758  172.3482 H       1  UNL1        0.1442
     12 H         142.1906  141.3315  172.3388 H       1  UNL1        0.1442
     13 O         141.7988  142.4353  164.5274 O.3     1  UNL1       -0.4755
     14 C         143.0136  142.8370  163.7446 C.3     1  UNL1        0.2054
     15 C         143.2729  144.2853  163.4530 C.3     1  UNL1        0.0488
     16 C         142.2308  145.3141  163.7781 C.3     1  UNL1        0.0212
     17 C         141.0224  145.4605  162.9016 C.3     1  UNL1        0.0722
     18 N         139.7361  144.7874  163.2789 N.3     1  UNL1       -0.2727
     19 C         138.9010  143.9181  162.3862 C.3     1  UNL1        0.0721
     20 C         137.7078  143.4589  163.1708 C.3     1  UNL1        0.0188
     21 C         137.8056  144.0444  164.5484 C.3     1  UNL1        0.0188
     22 C         139.0592  144.8655  164.6151 C.3     1  UNL1        0.0721
@<TRIPOS>BOND
     1     7     8    1
     2     8     9    2
     3     8    10    2
     4     8     1    1
     5     1     2   ar
     6     2     3   ar
     7     3     4   ar
     8     4    13    1
     9    13    14    1
    10    14    15    1
    11    15    16    1
    12    16    17    1
    13    17    18    1
    14    18    19    1
    15    19    20    1
    16    20    21    1
    17    21    22    1
    18     4     5   ar
    19     5     6   ar
    20     6     1   ar
    21    22    18    1
    22     7    11    1
    23     7    12    1
@<TRIPOS>MOLECULE
*****
 22 23 0 0 0
SMALL
GASTEIGER

@<TRIPOS>ATOM
      1 C         141.8675  142.4250  168.9257 C.ar    1  UNL1        0.1219
      2 C         140.5494  142.7771  168.3022 C.ar    1  UNL1        0.0230
      3 C         140.4334  142.8987  166.8117 C.ar    1  UNL1        0.0383
      4 C         141.6355  142.6682  165.9446 C.ar    1  UNL1        0.1386
      5 C         142.9535  142.3162  166.5680 C.ar    1  UNL1        0.0383
      6 C         143.0695  142.1945  168.0586 C.ar    1  UNL1        0.0230
      7 N         142.0995  142.1818  171.9068 N.3     1  UNL1       -0.2035
      8 S         141.9835  142.3034  170.4162 S.O2    1  UNL1        0.0572
      9 O         142.9533  141.1715  170.2484 O.2     1  UNL1       -0.1532
     10 O         141.0137  143.4354  170.5841 O.2     1  UNL1       -0.1532
     11 H         142.3791  143.0803  172.3005 H       1  UNL1        0.1442
     12 H         142.7999  141.4770  172.1369 H       1  UNL1        0.1442
     13 O         141.5195  142.7898  164.4540 O.3     1  UNL1       -0.4755
     14 C         141.0625  144.0798  163.8401 C.3     1  UNL1        0.2054
     15 C         142.0258  145.2189  163.6840 C.3     1  UNL1        0.0488
     16 C         143.5003  144.9779  163.8176 C.3     1  UNL1        0.0212
     17 C         144.2350  144.2154  162.7551 C.3     1  UNL1        0.0722
     18 N         144.5039  142.7506  162.9334 N.3     1  UNL1       -0.2727
     19 C         143.9243  141.6408  162.1073 C.3     1  UNL1        0.0721
     20 C         144.4618  140.3426  162.6324 C.3     1  UNL1        0.0188
     21 C         145.3738  140.6501  163.7830 C.3     1  UNL1        0.0188
     22 C         145.3997  142.1383  163.9690 C.3     1  UNL1        0.0721
@<TRIPOS>BOND
     1     7     8    1
     2     8     9    2
     3     8    10    2
     4     8     1    1
     5     1     2   ar
     6     2     3   ar
     7     3     4   ar
     8     4    13    1
     9    13    14    1
    10    14    15    1
    11    15    16    1
    12    16    17    1
    13    17    18    1
    14    18    19    1
    15    19    20    1
    16    20    21    1
    17    21    22    1
    18     4     5   ar
    19     5     6   ar
    20     6     1   ar
    21    22    18    1
    22     7    11    1
    23     7    12    1
@<TRIPOS>MOLECULE
*****
 22 23 0 0 0
SMALL
GASTEIGER

@<TRIPOS>ATOM
      1 C         140.1464  141.4380  169.0198 C.ar    1  UNL1        0.1219
      2 C         140.5415  142.3817  167.9229 C.ar    1  UNL1        0.0230
      3 C         140.3032  142.0079  166.4899 C.ar    1  UNL1        0.0383
      4 C         139.6698  140.6904  166.1538 C.ar    1  UNL1        0.1386
      5 C         139.2747  139.7467  167.2508 C.ar    1  UNL1        0.0383
      6 C         139.5130  140.1205  168.6838 C.ar    1  UNL1        0.0230
      7 N         140.6230  142.1857  171.8858 N.3     1  UNL1       -0.2035
      8 S         140.3847  141.8119  170.4528 S.O2    1  UNL1        0.0572
      9 O         139.7267  140.5383  170.8945 O.2     1  UNL1       -0.1532
     10 O         141.0427  143.0854  170.0112 O.2     1  UNL1       -0.1532
     11 H         141.6176  142.3597  172.0309 H       1  UNL1        0.1442
     12 H         140.3194  141.4229  172.4912 H       1  UNL1        0.1442
     13 O         139.4315  140.3166  164.7208 O.3     1  UNL1       -0.4755
     14 C         138.5201  139.1734  164.3856 C.3     1  UNL1        0.2054
     15 C         139.0959  137.8358  164.0260 C.3     1  UNL1        0.0488
     16 C         140.0328  137.7111  162.8612 C.3     1  UNL1        0.0212
     17 C         141.5084  137.5793  163.0964 C.3     1  UNL1        0.0722
     18 N         142.1931  138.4750  164.0857 N.3     1  UNL1       -0.2727
     19 C         142.4334  138.1680  165.5342 C.3     1  UNL1        0.0721
     20 C         143.1466  139.3382  166.1440 C.3     1  UNL1        0.0188
     21 C         143.3472  140.3685  165.0723 C.3     1  UNL1        0.0188
     22 C         142.7579  139.8350  163.8003 C.3     1  UNL1        0.0721
@<TRIPOS>BOND
     1     7     8    1
     2     8     9    2
     3     8    10    2
     4     8     1    1
     5     1     2   ar
     6     2     3   ar
     7     3     4   ar
     8     4    13    1
     9    13    14    1
    10    14    15    1
    11    15    16    1
    12    16    17    1
    13    17    18    1
    14    18    19    1
    15    19    20    1
    16    20    21    1
    17    21    22    1
    18     4     5   ar
    19     5     6   ar
    20     6     1   ar
    21    22    18    1
    22     7    11    1
    23     7    12    1
@<TRIPOS>MOLECULE
*****
 22 23 0 0 0
SMALL
GASTEIGER

@<TRIPOS>ATOM
      1 C         138.9883  139.6459  166.6812 C.ar    1  UNL1        0.1219
      2 C         139.5619  140.4518  167.8088 C.ar    1  UNL1        0.0230
      3 C         140.5388  141.5534  167.5223 C.ar    1  UNL1        0.0383
      4 C         140.9421  141.8491  166.1081 C.ar    1  UNL1        0.1386
      5 C         140.3686  141.0431  164.9805 C.ar    1  UNL1        0.0383
      6 C         139.3917  139.9415  165.2671 C.ar    1  UNL1        0.0230
      7 N         137.0345  137.4426  167.2543 N.3     1  UNL1       -0.2035
      8 S         138.0114  138.5443  166.9678 S.O2    1  UNL1        0.0572
      9 O         138.1763  138.0336  165.5670 O.2     1  UNL1       -0.1532
     10 O         137.8465  139.0549  168.3685 O.2     1  UNL1       -0.1532
     11 H         137.3504  136.9105  168.0651 H       1  UNL1        0.1442
     12 H         136.9720  136.8246  166.4453 H       1  UNL1        0.1442
     13 O         141.9191  142.9507  165.8216 O.3     1  UNL1       -0.4755
     14 C         142.6475  142.9849  164.5108 C.3     1  UNL1        0.2054
     15 C         143.1001  144.2955  163.9383 C.3     1  UNL1        0.0488
     16 C         142.1232  145.4231  163.7823 C.3     1  UNL1        0.0212
     17 C         140.9732  145.2924  162.8282 C.3     1  UNL1        0.0722
     18 N         139.7059  144.6214  163.2685 N.3     1  UNL1       -0.2727
     19 C         138.8814  143.6715  162.4514 C.3     1  UNL1        0.0721
     20 C         137.7066  143.2455  163.2811 C.3     1  UNL1        0.0188
     21 C         137.8051  143.9322  164.6111 C.3     1  UNL1        0.0188
     22 C         139.0408  144.7826  164.6033 C.3     1  UNL1        0.0721
@<TRIPOS>BOND
     1     7     8    1
     2     8     9    2
     3     8    10    2
     4     8     1    1
     5     1     2   ar
     6     2     3   ar
     7     3     4   ar
     8     4    13    1
     9    13    14    1
    10    14    15    1
    11    15    16    1
    12    16    17    1
    13    17    18    1
    14    18    19    1
    15    19    20    1
    16    20    21    1
    17    21    22    1
    18     4     5   ar
    19     5     6   ar
    20     6     1   ar
    21    22    18    1
    22     7    11    1
    23     7    12    1
@<TRIPOS>MOLECULE
*****
 22 23 0 0 0
SMALL
GASTEIGER

@<TRIPOS>ATOM
      1 C         141.0214  141.7713  169.7719 C.ar    1  UNL1        0.1219
      2 C         141.5393  141.9648  168.3775 C.ar    1  UNL1        0.0230
      3 C         142.3327  140.8780  167.7146 C.ar    1  UNL1        0.0383
      4 C         142.6083  139.5978  168.4461 C.ar    1  UNL1        0.1386
      5 C         142.0904  139.4044  169.8404 C.ar    1  UNL1        0.0383
      6 C         141.2970  140.4911  170.5033 C.ar    1  UNL1        0.0230
      7 N         139.4345  143.9448  171.0977 N.3     1  UNL1       -0.2035
      8 S         140.2280  142.8581  170.4348 S.O2    1  UNL1        0.0572
      9 O         140.3749  142.1604  171.7545 O.2     1  UNL1       -0.1532
     10 O         140.0810  143.5558  169.1151 O.2     1  UNL1       -0.1532
     11 H         139.8717  144.8472  170.9109 H       1  UNL1        0.1442
     12 H         139.4088  143.7813  172.1042 H       1  UNL1        0.1442
     13 O         143.4017  138.5111  167.7832 O.3     1  UNL1       -0.4755
     14 C         143.5574  138.4996  166.2913 C.3     1  UNL1        0.2054
     15 C         142.4056  138.0942  165.4201 C.3     1  UNL1        0.0488
     16 C         142.4473  138.3688  163.9460 C.3     1  UNL1        0.0212
     17 C         142.3825  139.7809  163.4441 C.3     1  UNL1        0.0722
     18 N         143.5308  140.7156  163.6843 N.3     1  UNL1       -0.2727
     19 C         143.4726  142.0059  164.4470 C.3     1  UNL1        0.0721
     20 C         144.8446  142.6120  164.4380 C.3     1  UNL1        0.0188
     21 C         145.7508  141.6962  163.6697 C.3     1  UNL1        0.0188
     22 C         144.9388  140.5242  163.2039 C.3     1  UNL1        0.0721
@<TRIPOS>BOND
     1     7     8    1
     2     8     9    2
     3     8    10    2
     4     8     1    1
     5     1     2   ar
     6     2     3   ar
     7     3     4   ar
     8     4    13    1
     9    13    14    1
    10    14    15    1
    11    15    16    1
    12    16    17    1
    13    17    18    1
    14    18    19    1
    15    19    20    1
    16    20    21    1
    17    21    22    1
    18     4     5   ar
    19     5     6   ar
    20     6     1   ar
    21    22    18    1
    22     7    11    1
    23     7    12    1
@<TRIPOS>MOLECULE
*****
 22 23 0 0 0
SMALL
GASTEIGER

@<TRIPOS>ATOM
      1 C         142.6205  140.5196  168.8676 C.ar    1  UNL1        0.1219
      2 C         142.7113  141.7502  168.0148 C.ar    1  UNL1        0.0230
      3 C         142.9194  141.6234  166.5348 C.ar    1  UNL1        0.0383
      4 C         143.0367  140.2659  165.9075 C.ar    1  UNL1        0.1386
      5 C         142.9459  139.0353  166.7602 C.ar    1  UNL1        0.0383
      6 C         142.7378  139.1621  168.2403 C.ar    1  UNL1        0.0230
      7 N         142.2042  140.7732  171.8277 N.3     1  UNL1       -0.2035
      8 S         142.4123  140.6464  170.3477 S.O2    1  UNL1        0.0572
      9 O         141.4708  141.7911  170.1172 O.2     1  UNL1       -0.1532
     10 O         143.3539  139.5017  170.5782 O.2     1  UNL1       -0.1532
     11 H         141.8879  139.8796  172.2044 H       1  UNL1        0.1442
     12 H         141.5004  141.4881  172.0121 H       1  UNL1        0.1442
     13 O         143.2449  140.1391  164.4274 O.3     1  UNL1       -0.4755
     14 C         143.4245  138.7846  163.8086 C.3     1  UNL1        0.2054
     15 C         142.2940  138.1480  163.0558 C.3     1  UNL1        0.0488
     16 C         141.2941  137.2978  163.7820 C.3     1  UNL1        0.0212
     17 C         139.9054  137.8120  164.0211 C.3     1  UNL1        0.0722
     18 N         139.6986  139.0868  164.7839 N.3     1  UNL1       -0.2727
     19 C         139.7089  140.4713  164.2067 C.3     1  UNL1        0.0721
     20 C         139.4619  141.4412  165.3240 C.3     1  UNL1        0.0188
     21 C         139.2989  140.6561  166.5917 C.3     1  UNL1        0.0188
     22 C         139.4452  139.2010  166.2579 C.3     1  UNL1        0.0721
@<TRIPOS>BOND
     1     7     8    1
     2     8     9    2
     3     8    10    2
     4     8     1    1
     5     1     2   ar
     6     2     3   ar
     7     3     4   ar
     8     4    13    1
     9    13    14    1
    10    14    15    1
    11    15    16    1
    12    16    17    1
    13    17    18    1
    14    18    19    1
    15    19    20    1
    16    20    21    1
    17    21    22    1
    18     4     5   ar
    19     5     6   ar
    20     6     1   ar
    21    22    18    1
    22     7    11    1
    23     7    12    1
@<TRIPOS>MOLECULE
*****
 22 23 0 0 0
SMALL
GASTEIGER

@<TRIPOS>ATOM
      1 C         140.7426  141.9752  169.3512 C.ar    1  UNL1        0.1219
      2 C         141.9919  142.6282  168.8384 C.ar    1  UNL1        0.0230
      3 C         142.8250  141.9401  167.7980 C.ar    1  UNL1        0.0383
      4 C         142.4089  140.5991  167.2703 C.ar    1  UNL1        0.1386
      5 C         141.1597  139.9461  167.7832 C.ar    1  UNL1        0.0383
      6 C         140.3266  140.6341  168.8236 C.ar    1  UNL1        0.0230
      7 N         139.0764  143.3513  171.4321 N.3     1  UNL1       -0.2035
      8 S         139.9095  142.6632  170.3917 S.O2    1  UNL1        0.0572
      9 O         140.0341  143.9540  169.6378 O.2     1  UNL1       -0.1532
     10 O         139.7850  141.3724  171.1455 O.2     1  UNL1       -0.1532
     11 H         138.1849  142.8653  171.5298 H       1  UNL1        0.1442
     12 H         138.9082  144.3167  171.1492 H       1  UNL1        0.1442
     13 O         143.2420  139.9110  166.2299 O.3     1  UNL1       -0.4755
     14 C         142.9848  138.4719  165.8944 C.3     1  UNL1        0.2054
     15 C         141.9927  138.1163  164.8271 C.3     1  UNL1        0.0488
     16 C         141.7084  139.0824  163.7154 C.3     1  UNL1        0.0212
     17 C         140.4461  139.8926  163.7303 C.3     1  UNL1        0.0722
     18 N         140.4375  141.2563  164.3550 N.3     1  UNL1       -0.2727
     19 C         141.4617  142.3309  164.1402 C.3     1  UNL1        0.0721
     20 C         141.0604  143.5236  164.9566 C.3     1  UNL1        0.0188
     21 C         139.7881  143.1860  165.6760 C.3     1  UNL1        0.0188
     22 C         139.4032  141.7847  165.3041 C.3     1  UNL1        0.0721
@<TRIPOS>BOND
     1     7     8    1
     2     8     9    2
     3     8    10    2
     4     8     1    1
     5     1     2   ar
     6     2     3   ar
     7     3     4   ar
     8     4    13    1
     9    13    14    1
    10    14    15    1
    11    15    16    1
    12    16    17    1
    13    17    18    1
    14    18    19    1
    15    19    20    1
    16    20    21    1
    17    21    22    1
    18     4     5   ar
    19     5     6   ar
    20     6     1   ar
    21    22    18    1
    22     7    11    1
    23     7    12    1
