@<TRIPOS>MOLECULE
*****
 29 31 0 0 0
SMALL
GASTEIGER

@<TRIPOS>ATOM
      1 C         141.1367  140.3209  166.2623 C.ar    1  UNL1        0.0252
      2 C         139.9324  141.0309  165.7186 C.ar    1  UNL1       -0.0009
      3 C         139.0741  140.3667  164.6832 C.ar    1  UNL1        0.0210
      4 C         139.4201  138.9925  164.1914 C.ar    1  UNL1        0.1397
      5 F         138.5618  138.3283  163.1558 F       1  UNL1       -0.2044
      6 C         140.6244  138.2825  164.7350 C.ar    1  UNL1        0.0587
      7 C         141.4827  138.9467  165.7705 C.ar    1  UNL1        0.1401
      8 F         142.6871  138.2367  166.3141 F       1  UNL1       -0.2044
      9 C         144.2971  142.7713  169.9921 C.3     1  UNL1        0.0122
     10 C         143.2284  141.9082  169.3898 C.3     1  UNL1        0.0568
     11 C         143.0637  141.8483  167.9001 C.3     1  UNL1        0.0380
     12 C         141.9950  140.9851  167.2978 C.3     1  UNL1        0.1080
     13 C         142.6010  141.5577  166.0508 C.3     1  UNL1        0.0291
     14 N         141.0909  140.1819  168.1851 N.2     1  UNL1       -0.2509
     15 C         141.2556  140.2418  169.6748 C.2     1  UNL1        0.1481
     16 N         140.3516  139.4385  170.5623 N.pl3   1  UNL1       -0.3380
     17 S         142.3244  141.1049  170.2771 S.3     1  UNL1       -0.0816
     18 H         139.6501  138.8720  170.1670 H       1  UNL1        0.1442
     19 H         140.4597  139.4778  171.5400 H       1  UNL1        0.1442
     20 C         137.8698  141.0767  164.1395 C.3     1  UNL1        0.0980
     21 N         137.5325  142.4570  164.6201 N.3     1  UNL1       -0.2892
     22 H         137.8551  142.5196  165.5858 H       1  UNL1        0.1237
     23 C         138.0789  143.6555  163.9024 C.3     1  UNL1        0.1307
     24 C         138.5176  144.5464  162.7783 C.3     1  UNL1        0.0245
     25 C         137.9585  143.1862  162.4828 C.3     1  UNL1        0.0245
     26 C         138.3891  144.5410  165.0728 C.3     1  UNL1        0.4088
     27 F         138.6994  145.4264  166.2431 F       1  UNL1       -0.1686
     28 F         136.9300  144.5993  165.4155 F       1  UNL1       -0.1686
     29 F         139.8483  144.4827  164.7302 F       1  UNL1       -0.1686
@<TRIPOS>BOND
     1    10     9    1
     2    10    11    1
     3    11    12    1
     4    12    13    1
     5    12     1    1
     6     1     2   ar
     7     2     3   ar
     8     3    20    1
     9    20    21    1
    10    21    23    1
    11    23    26    1
    12    26    27    1
    13    26    28    1
    14    26    29    1
    15    23    24    1
    16    24    25    1
    17     3     4   ar
    18     4     5    1
    19     4     6   ar
    20     6     7   ar
    21     7     8    1
    22    12    14    1
    23    14    15    2
    24    15    16    1
    25    15    17    1
    26    17    10    1
    27     7     1   ar
    28    25    23    1
    29    21    22    1
    30    16    18    1
    31    16    19    1
@<TRIPOS>MOLECULE
*****
 29 31 0 0 0
SMALL
GASTEIGER

@<TRIPOS>ATOM
      1 C         140.3695  141.0148  165.7483 C.ar    1  UNL1        0.0252
      2 C         140.2825  140.9908  167.2457 C.ar    1  UNL1       -0.0009
      3 C         139.2688  140.1180  167.9241 C.ar    1  UNL1        0.0210
      4 C         138.3418  139.2692  167.1054 C.ar    1  UNL1        0.1397
      5 F         137.3279  138.3964  167.7839 F       1  UNL1       -0.2044
      6 C         138.4287  139.2932  165.6081 C.ar    1  UNL1        0.0587
      7 C         139.4425  140.1661  164.9296 C.ar    1  UNL1        0.1401
      8 F         139.5295  140.1901  163.4322 F       1  UNL1       -0.2044
      9 C         144.1070  144.1508  163.2784 C.3     1  UNL1        0.0122
     10 C         142.8099  143.7100  163.8893 C.3     1  UNL1        0.0568
     11 C         142.6804  142.3285  164.4590 C.3     1  UNL1        0.0380
     12 C         141.3833  141.8877  165.0699 C.3     1  UNL1        0.1080
     13 C         142.1988  140.6438  165.2643 C.3     1  UNL1        0.0291
     14 N         140.2157  142.8284  165.1111 N.2     1  UNL1       -0.2509
     15 C         140.3452  144.2099  164.5414 C.2     1  UNL1        0.1481
     16 N         139.1776  145.1507  164.5825 N.pl3   1  UNL1       -0.3380
     17 S         141.6423  144.6507  163.9305 S.3     1  UNL1       -0.0816
     18 H         138.3262  144.8614  164.9834 H       1  UNL1        0.1442
     19 H         139.2626  146.0574  164.2086 H       1  UNL1        0.1442
     20 C         139.1818  140.0940  169.4215 C.3     1  UNL1        0.0980
     21 N         139.2739  141.3736  170.1987 N.3     1  UNL1       -0.2892
     22 H         138.7683  141.2247  171.0720 H       1  UNL1        0.1237
     23 C         140.6163  141.9334  170.5655 C.3     1  UNL1        0.1307
     24 C         142.0376  141.9900  171.0416 C.3     1  UNL1        0.0245
     25 C         141.3096  140.6789  171.0078 C.3     1  UNL1        0.0245
     26 C         140.3893  143.3823  170.2505 C.3     1  UNL1        0.4088
     27 F         140.1623  144.8312  169.9355 F       1  UNL1       -0.1686
     28 F         139.1515  143.3725  171.0976 F       1  UNL1       -0.1686
     29 F         141.6272  143.3922  169.4034 F       1  UNL1       -0.1686
@<TRIPOS>BOND
     1    10     9    1
     2    10    11    1
     3    11    12    1
     4    12    13    1
     5    12     1    1
     6     1     2   ar
     7     2     3   ar
     8     3    20    1
     9    20    21    1
    10    21    23    1
    11    23    26    1
    12    26    27    1
    13    26    28    1
    14    26    29    1
    15    23    24    1
    16    24    25    1
    17     3     4   ar
    18     4     5    1
    19     4     6   ar
    20     6     7   ar
    21     7     8    1
    22    12    14    1
    23    14    15    2
    24    15    16    1
    25    15    17    1
    26    17    10    1
    27     7     1   ar
    28    25    23    1
    29    21    22    1
    30    16    18    1
    31    16    19    1
@<TRIPOS>MOLECULE
*****
 29 31 0 0 0
SMALL
GASTEIGER

@<TRIPOS>ATOM
      1 C         142.1197  140.8614  166.7841 C.ar    1  UNL1        0.0252
      2 C         141.6352  139.5481  166.2453 C.ar    1  UNL1       -0.0009
      3 C         142.3311  138.9138  165.0777 C.ar    1  UNL1        0.0210
      4 C         143.5116  139.5928  164.4489 C.ar    1  UNL1        0.1397
      5 F         144.2076  138.9585  163.2812 F       1  UNL1       -0.2044
      6 C         143.9961  140.9061  164.9876 C.ar    1  UNL1        0.0587
      7 C         143.3002  141.5405  166.1553 C.ar    1  UNL1        0.1401
      8 F         143.7848  142.8538  166.6942 F       1  UNL1       -0.2044
      9 C         139.5462  143.2053  171.0016 C.3     1  UNL1        0.0122
     10 C         140.5006  142.3460  170.2265 C.3     1  UNL1        0.0568
     11 C         140.4694  142.3549  168.7269 C.3     1  UNL1        0.0380
     12 C         141.4238  141.4956  167.9517 C.3     1  UNL1        0.1080
     13 C         140.6800  142.1436  166.8218 C.3     1  UNL1        0.0291
     14 N         142.4093  140.6274  168.6762 N.2     1  UNL1       -0.2509
     15 C         142.4404  140.6185  170.1758 C.2     1  UNL1        0.1481
     16 N         143.4259  139.7502  170.9004 N.pl3   1  UNL1       -0.3380
     17 S         141.4861  141.4778  170.9510 S.3     1  UNL1       -0.0816
     18 H         144.0523  139.1862  170.3917 H       1  UNL1        0.1442
     19 H         143.4464  139.7443  171.8847 H       1  UNL1        0.1442
     20 C         141.8466  137.6004  164.5388 C.3     1  UNL1        0.0980
     21 N         140.4173  137.1901  164.7363 N.3     1  UNL1       -0.2892
     22 H         140.2214  137.2761  165.7336 H       1  UNL1        0.1237
     23 C         139.3216  137.9180  164.0154 C.3     1  UNL1        0.1307
     24 C         138.5137  138.4909  162.8889 C.3     1  UNL1        0.0245
     25 C         139.7696  137.7244  162.5970 C.3     1  UNL1        0.0245
     26 C         138.4931  138.3644  165.1834 C.3     1  UNL1        0.4088
     27 F         137.6646  138.8108  166.3515 F       1  UNL1       -0.1686
     28 F         138.5490  139.7774  164.6832 F       1  UNL1       -0.1686
     29 F         138.4372  136.9514  165.6838 F       1  UNL1       -0.1686
@<TRIPOS>BOND
     1    10     9    1
     2    10    11    1
     3    11    12    1
     4    12    13    1
     5    12     1    1
     6     1     2   ar
     7     2     3   ar
     8     3    20    1
     9    20    21    1
    10    21    23    1
    11    23    26    1
    12    26    27    1
    13    26    28    1
    14    26    29    1
    15    23    24    1
    16    24    25    1
    17     3     4   ar
    18     4     5    1
    19     4     6   ar
    20     6     7   ar
    21     7     8    1
    22    12    14    1
    23    14    15    2
    24    15    16    1
    25    15    17    1
    26    17    10    1
    27     7     1   ar
    28    25    23    1
    29    21    22    1
    30    16    18    1
    31    16    19    1
@<TRIPOS>MOLECULE
*****
 29 31 0 0 0
SMALL
GASTEIGER

@<TRIPOS>ATOM
      1 C         138.9656  139.6920  165.1824 C.ar    1  UNL1        0.0252
      2 C         138.5396  140.9353  164.4593 C.ar    1  UNL1       -0.0009
      3 C         138.1153  140.8592  163.0226 C.ar    1  UNL1        0.0210
      4 C         138.1171  139.5398  162.3089 C.ar    1  UNL1        0.1397
      5 F         137.6929  139.4637  160.8721 F       1  UNL1       -0.2044
      6 C         138.5431  138.2966  163.0319 C.ar    1  UNL1        0.0587
      7 C         138.9674  138.3726  164.4687 C.ar    1  UNL1        0.1401
      8 F         139.3934  137.1294  165.1918 F       1  UNL1       -0.2044
      9 C         140.4556  139.9507  170.4376 C.3     1  UNL1        0.0122
     10 C         140.5234  140.0353  168.9415 C.3     1  UNL1        0.0568
     11 C         139.3220  139.6836  168.1152 C.3     1  UNL1        0.0380
     12 C         139.3898  139.7681  166.6191 C.3     1  UNL1        0.1080
     13 C         137.9732  139.3056  166.7900 C.3     1  UNL1        0.0291
     14 N         140.6591  140.2043  165.9494 N.2     1  UNL1       -0.2509
     15 C         141.8606  140.5559  166.7757 C.2     1  UNL1        0.1481
     16 N         143.1300  140.9920  166.1059 N.pl3   1  UNL1       -0.3380
     17 S         141.7927  140.4714  168.2717 S.3     1  UNL1       -0.0816
     18 H         143.1745  141.0475  165.1240 H       1  UNL1        0.1442
     19 H         143.9185  141.2228  166.6482 H       1  UNL1        0.1442
     20 C         137.6893  142.1025  162.2995 C.3     1  UNL1        0.0980
     21 N         137.6099  143.4076  163.0346 N.3     1  UNL1       -0.2892
     22 H         137.3138  143.1919  163.9865 H       1  UNL1        0.1237
     23 C         138.8246  144.2806  163.1462 C.3     1  UNL1        0.1307
     24 C         140.0777  145.0085  162.7591 C.3     1  UNL1        0.0245
     25 C         139.3570  144.1660  161.7487 C.3     1  UNL1        0.0245
     26 C         138.7140  144.6984  164.5827 C.3     1  UNL1        0.4088
     27 F         138.6034  145.1161  166.0190 F       1  UNL1       -0.1686
     28 F         137.2550  144.3501  164.5717 F       1  UNL1       -0.1686
     29 F         140.1730  145.0467  164.5937 F       1  UNL1       -0.1686
@<TRIPOS>BOND
     1    10     9    1
     2    10    11    1
     3    11    12    1
     4    12    13    1
     5    12     1    1
     6     1     2   ar
     7     2     3   ar
     8     3    20    1
     9    20    21    1
    10    21    23    1
    11    23    26    1
    12    26    27    1
    13    26    28    1
    14    26    29    1
    15    23    24    1
    16    24    25    1
    17     3     4   ar
    18     4     5    1
    19     4     6   ar
    20     6     7   ar
    21     7     8    1
    22    12    14    1
    23    14    15    2
    24    15    16    1
    25    15    17    1
    26    17    10    1
    27     7     1   ar
    28    25    23    1
    29    21    22    1
    30    16    18    1
    31    16    19    1
@<TRIPOS>MOLECULE
*****
 29 31 0 0 0
SMALL
GASTEIGER

@<TRIPOS>ATOM
      1 C         140.2918  142.1513  166.4607 C.ar    1  UNL1        0.0252
      2 C         139.7785  143.3799  165.7698 C.ar    1  UNL1       -0.0009
      3 C         138.6547  143.2709  164.7824 C.ar    1  UNL1        0.0210
      4 C         138.0441  141.9333  164.4858 C.ar    1  UNL1        0.1397
      5 F         136.9202  141.8241  163.4983 F       1  UNL1       -0.2044
      6 C         138.5573  140.7047  165.1766 C.ar    1  UNL1        0.0587
      7 C         139.6812  140.8138  166.1641 C.ar    1  UNL1        0.1401
      8 F         140.1944  139.5852  166.8549 F       1  UNL1       -0.2044
      9 C         144.4298  142.5410  170.0145 C.3     1  UNL1        0.0122
     10 C         143.0343  142.5063  169.4654 C.3     1  UNL1        0.0568
     11 C         142.8111  142.2952  167.9972 C.3     1  UNL1        0.0380
     12 C         141.4156  142.2605  167.4481 C.3     1  UNL1        0.1080
     13 C         142.1975  142.0461  166.1861 C.3     1  UNL1        0.0291
     14 N         140.2434  142.4370  168.3672 N.2     1  UNL1       -0.2509
     15 C         140.4666  142.6481  169.8353 C.2     1  UNL1        0.1481
     16 N         139.2944  142.8246  170.7545 N.pl3   1  UNL1       -0.3380
     17 S         141.8621  142.6828  170.3844 S.3     1  UNL1       -0.0816
     18 H         138.3785  142.8018  170.3941 H       1  UNL1        0.1442
     19 H         139.4409  142.9632  171.7181 H       1  UNL1        0.1442
     20 C         138.1414  144.4994  164.0915 C.3     1  UNL1        0.0980
     21 N         138.3727  144.6849  162.6211 N.3     1  UNL1       -0.2892
     22 H         138.3494  145.6891  162.4437 H       1  UNL1        0.1237
     23 C         139.6279  144.1622  161.9876 C.3     1  UNL1        0.1307
     24 C         140.5326  143.3223  161.1355 C.3     1  UNL1        0.0245
     25 C         139.0544  143.0670  161.1382 C.3     1  UNL1        0.0245
     26 C         140.6374  145.0760  162.6170 C.3     1  UNL1        0.4088
     27 F         141.6468  145.9898  163.2464 F       1  UNL1       -0.1686
     28 F         141.4276  143.8867  163.0763 F       1  UNL1       -0.1686
     29 F         139.8472  146.2654  162.1577 F       1  UNL1       -0.1686
@<TRIPOS>BOND
     1    10     9    1
     2    10    11    1
     3    11    12    1
     4    12    13    1
     5    12     1    1
     6     1     2   ar
     7     2     3   ar
     8     3    20    1
     9    20    21    1
    10    21    23    1
    11    23    26    1
    12    26    27    1
    13    26    28    1
    14    26    29    1
    15    23    24    1
    16    24    25    1
    17     3     4   ar
    18     4     5    1
    19     4     6   ar
    20     6     7   ar
    21     7     8    1
    22    12    14    1
    23    14    15    2
    24    15    16    1
    25    15    17    1
    26    17    10    1
    27     7     1   ar
    28    25    23    1
    29    21    22    1
    30    16    18    1
    31    16    19    1
@<TRIPOS>MOLECULE
*****
 29 31 0 0 0
SMALL
GASTEIGER

@<TRIPOS>ATOM
      1 C         142.4818  140.7477  166.4760 C.ar    1  UNL1        0.0252
      2 C         143.0334  142.1130  166.1902 C.ar    1  UNL1       -0.0009
      3 C         144.1427  142.2803  165.1944 C.ar    1  UNL1        0.0210
      4 C         144.7003  141.0824  164.4845 C.ar    1  UNL1        0.1397
      5 F         145.8096  141.2497  163.4886 F       1  UNL1       -0.2044
      6 C         144.1487  139.7171  164.7703 C.ar    1  UNL1        0.0587
      7 C         143.0394  139.5497  165.7660 C.ar    1  UNL1        0.1401
      8 F         142.4877  138.1844  166.0519 F       1  UNL1       -0.2044
      9 C         138.3963  140.1456  170.0607 C.3     1  UNL1        0.0122
     10 C         139.7840  140.2393  169.4991 C.3     1  UNL1        0.0568
     11 C         139.9848  140.4867  168.0334 C.3     1  UNL1        0.0380
     12 C         141.3725  140.5804  167.4718 C.3     1  UNL1        0.1080
     13 C         140.5708  140.7922  166.2218 C.3     1  UNL1        0.0291
     14 N         142.5595  140.4267  168.3759 N.2     1  UNL1       -0.2509
     15 C         142.3587  140.1793  169.8416 C.2     1  UNL1        0.1481
     16 N         143.5457  140.0255  170.7458 N.pl3   1  UNL1       -0.3380
     17 S         140.9709  140.0856  170.4032 S.3     1  UNL1       -0.0816
     18 H         144.4565  140.0870  170.3772 H       1  UNL1        0.1442
     19 H         143.4139  139.8631  171.7079 H       1  UNL1        0.1442
     20 C         144.6943  143.6456  164.9086 C.3     1  UNL1        0.0980
     21 N         143.8693  144.6448  164.1529 N.3     1  UNL1       -0.2892
     22 H         144.5226  145.2851  163.7018 H       1  UNL1        0.1237
     23 C         142.9154  144.1809  163.0923 C.3     1  UNL1        0.1307
     24 C         142.4149  143.6284  161.7907 C.3     1  UNL1        0.0245
     25 C         143.8893  143.7649  162.0300 C.3     1  UNL1        0.0245
     26 C         141.6102  144.4358  163.7862 C.3     1  UNL1        0.4088
     27 F         140.3050  144.6906  164.4800 F       1  UNL1       -0.1686
     28 F         142.0432  145.8405  164.0847 F       1  UNL1       -0.1686
     29 F         141.1771  143.0310  163.4876 F       1  UNL1       -0.1686
@<TRIPOS>BOND
     1    10     9    1
     2    10    11    1
     3    11    12    1
     4    12    13    1
     5    12     1    1
     6     1     2   ar
     7     2     3   ar
     8     3    20    1
     9    20    21    1
    10    21    23    1
    11    23    26    1
    12    26    27    1
    13    26    28    1
    14    26    29    1
    15    23    24    1
    16    24    25    1
    17     3     4   ar
    18     4     5    1
    19     4     6   ar
    20     6     7   ar
    21     7     8    1
    22    12    14    1
    23    14    15    2
    24    15    16    1
    25    15    17    1
    26    17    10    1
    27     7     1   ar
    28    25    23    1
    29    21    22    1
    30    16    18    1
    31    16    19    1
@<TRIPOS>MOLECULE
*****
 29 31 0 0 0
SMALL
GASTEIGER

@<TRIPOS>ATOM
      1 C         140.1129  141.7419  166.0500 C.ar    1  UNL1        0.0252
      2 C         139.8688  140.3854  165.4580 C.ar    1  UNL1       -0.0009
      3 C         138.8096  140.2031  164.4117 C.ar    1  UNL1        0.0210
      4 C         137.9944  141.3774  163.9573 C.ar    1  UNL1        0.1397
      5 F         136.9351  141.1952  162.9110 F       1  UNL1       -0.2044
      6 C         138.2383  142.7339  164.5492 C.ar    1  UNL1        0.0587
      7 C         139.2976  142.9161  165.5956 C.ar    1  UNL1        0.1401
      8 F         139.5416  144.2727  166.1875 F       1  UNL1       -0.2044
      9 C         144.0158  142.4189  169.8199 C.3     1  UNL1        0.0122
     10 C         142.6775  142.1399  169.2028 C.3     1  UNL1        0.0568
     11 C         142.5105  142.2031  167.7135 C.3     1  UNL1        0.0380
     12 C         141.1721  141.9240  167.0963 C.3     1  UNL1        0.1080
     13 C         141.9756  142.2031  165.8608 C.3     1  UNL1        0.0291
     14 N         140.0007  141.5817  167.9684 N.2     1  UNL1       -0.2509
     15 C         140.1677  141.5185  169.4577 C.2     1  UNL1        0.1481
     16 N         138.9963  141.1762  170.3300 N.pl3   1  UNL1       -0.3380
     17 S         141.5061  141.7976  170.0749 S.3     1  UNL1       -0.0816
     18 H         138.1179  140.9930  169.9249 H       1  UNL1        0.1442
     19 H         139.1059  141.1347  171.3075 H       1  UNL1        0.1442
     20 C         138.5656  138.8466  163.8198 C.3     1  UNL1        0.0980
     21 N         139.5897  137.7626  163.9813 N.3     1  UNL1       -0.2892
     22 H         139.1363  136.8876  163.7181 H       1  UNL1        0.1237
     23 C         140.8790  137.8291  163.2176 C.3     1  UNL1        0.1307
     24 C         141.8285  137.9152  162.0596 C.3     1  UNL1        0.0245
     25 C         140.3483  137.9086  161.8170 C.3     1  UNL1        0.0245
     26 C         141.8576  137.7726  164.3532 C.3     1  UNL1        0.4088
     27 F         142.8361  137.7162  165.4886 F       1  UNL1       -0.1686
     28 F         141.2123  136.5117  164.8466 F       1  UNL1       -0.1686
     29 F         142.5030  139.0336  163.8597 F       1  UNL1       -0.1686
@<TRIPOS>BOND
     1    10     9    1
     2    10    11    1
     3    11    12    1
     4    12    13    1
     5    12     1    1
     6     1     2   ar
     7     2     3   ar
     8     3    20    1
     9    20    21    1
    10    21    23    1
    11    23    26    1
    12    26    27    1
    13    26    28    1
    14    26    29    1
    15    23    24    1
    16    24    25    1
    17     3     4   ar
    18     4     5    1
    19     4     6   ar
    20     6     7   ar
    21     7     8    1
    22    12    14    1
    23    14    15    2
    24    15    16    1
    25    15    17    1
    26    17    10    1
    27     7     1   ar
    28    25    23    1
    29    21    22    1
    30    16    18    1
    31    16    19    1
@<TRIPOS>MOLECULE
*****
 29 31 0 0 0
SMALL
GASTEIGER

@<TRIPOS>ATOM
      1 C         139.3151  142.4416  163.9025 C.ar    1  UNL1        0.0252
      2 C         140.4569  142.3043  162.9395 C.ar    1  UNL1       -0.0009
      3 C         140.8883  143.4808  162.1150 C.ar    1  UNL1        0.0210
      4 C         140.1779  144.7946  162.2536 C.ar    1  UNL1        0.1397
      5 F         140.6093  145.9712  161.4291 F       1  UNL1       -0.2044
      6 C         139.0361  144.9319  163.2166 C.ar    1  UNL1        0.0587
      7 C         138.6047  143.7554  164.0411 C.ar    1  UNL1        0.1401
      8 F         137.4629  143.8927  165.0042 F       1  UNL1       -0.2044
      9 C         137.7032  138.1358  166.8632 C.3     1  UNL1        0.0122
     10 C         138.4357  139.3806  166.4584 C.3     1  UNL1        0.0568
     11 C         138.1513  140.0203  165.1318 C.3     1  UNL1        0.0380
     12 C         138.8838  141.2651  164.7270 C.3     1  UNL1        0.1080
     13 C         138.0167  141.0685  163.5189 C.3     1  UNL1        0.0291
     14 N         139.9007  141.8702  165.6488 N.2     1  UNL1       -0.2509
     15 C         140.1851  141.2305  166.9753 C.2     1  UNL1        0.1481
     16 N         141.2020  141.8357  167.8972 N.pl3   1  UNL1       -0.3380
     17 S         139.4526  139.9857  167.3802 S.3     1  UNL1       -0.0816
     18 H         141.6828  142.6527  167.6315 H       1  UNL1        0.1442
     19 H         141.3887  141.4158  168.7679 H       1  UNL1        0.1442
     20 C         142.0301  143.3435  161.1519 C.3     1  UNL1        0.0980
     21 N         143.3773  143.9030  161.5012 N.3     1  UNL1       -0.2892
     22 H         143.2220  144.8495  161.8483 H       1  UNL1        0.1237
     23 C         144.2393  143.2069  162.5124 C.3     1  UNL1        0.1307
     24 C         145.1562  142.1868  163.1194 C.3     1  UNL1        0.0245
     25 C         144.6968  142.0320  161.6999 C.3     1  UNL1        0.0245
     26 C         144.0812  144.1402  163.6761 C.3     1  UNL1        0.4088
     27 F         143.9231  145.0735  164.8396 F       1  UNL1       -0.1686
     28 F         143.8963  142.9669  164.5920 F       1  UNL1       -0.1686
     29 F         144.2661  145.3136  162.7601 F       1  UNL1       -0.1686
@<TRIPOS>BOND
     1    10     9    1
     2    10    11    1
     3    11    12    1
     4    12    13    1
     5    12     1    1
     6     1     2   ar
     7     2     3   ar
     8     3    20    1
     9    20    21    1
    10    21    23    1
    11    23    26    1
    12    26    27    1
    13    26    28    1
    14    26    29    1
    15    23    24    1
    16    24    25    1
    17     3     4   ar
    18     4     5    1
    19     4     6   ar
    20     6     7   ar
    21     7     8    1
    22    12    14    1
    23    14    15    2
    24    15    16    1
    25    15    17    1
    26    17    10    1
    27     7     1   ar
    28    25    23    1
    29    21    22    1
    30    16    18    1
    31    16    19    1
@<TRIPOS>MOLECULE
*****
 29 31 0 0 0
SMALL
GASTEIGER

@<TRIPOS>ATOM
      1 C         140.4168  141.7905  166.3917 C.ar    1  UNL1        0.0252
      2 C         140.9447  142.9773  165.6413 C.ar    1  UNL1       -0.0009
      3 C         140.2239  143.4764  164.4243 C.ar    1  UNL1        0.0210
      4 C         138.9751  142.7889  163.9576 C.ar    1  UNL1        0.1397
      5 F         138.2542  143.2881  162.7405 F       1  UNL1       -0.2044
      6 C         138.4471  141.6023  164.7079 C.ar    1  UNL1        0.0587
      7 C         139.1680  141.1030  165.9250 C.ar    1  UNL1        0.1401
      8 F         138.6400  139.9163  166.6754 F       1  UNL1       -0.2044
      9 C         143.0658  139.9225  170.7959 C.3     1  UNL1        0.0122
     10 C         142.2142  140.7929  169.9201 C.3     1  UNL1        0.0568
     11 C         141.9893  140.4210  168.4845 C.3     1  UNL1        0.0380
     12 C         141.1377  141.2914  167.6088 C.3     1  UNL1        0.1080
     13 C         141.5141  140.2224  166.6262 C.3     1  UNL1        0.0291
     14 N         140.5108  142.5338  168.1686 N.2     1  UNL1       -0.2509
     15 C         140.7357  142.9058  169.6042 C.2     1  UNL1        0.1481
     16 N         140.1089  144.1483  170.1641 N.pl3   1  UNL1       -0.3380
     17 S         141.5874  142.0353  170.4800 S.3     1  UNL1       -0.0816
     18 H         139.5499  144.7196  169.5894 H       1  UNL1        0.1442
     19 H         140.2564  144.3924  171.1064 H       1  UNL1        0.1442
     20 C         140.7519  144.6631  163.6740 C.3     1  UNL1        0.0980
     21 N         142.1460  145.1534  163.9310 N.3     1  UNL1       -0.2892
     22 H         142.2662  145.1814  164.9435 H       1  UNL1        0.1237
     23 C         143.3196  144.4019  163.3762 C.3     1  UNL1        0.1307
     24 C         144.2025  143.6944  162.3913 C.3     1  UNL1        0.0245
     25 C         142.8902  144.2679  161.9452 C.3     1  UNL1        0.0245
     26 C         144.1566  144.2748  164.6145 C.3     1  UNL1        0.4088
     27 F         144.9936  144.1477  165.8527 F       1  UNL1       -0.1686
     28 F         144.1897  145.7687  164.7454 F       1  UNL1       -0.1686
     29 F         144.1235  142.7809  164.4835 F       1  UNL1       -0.1686
@<TRIPOS>BOND
     1    10     9    1
     2    10    11    1
     3    11    12    1
     4    12    13    1
     5    12     1    1
     6     1     2   ar
     7     2     3   ar
     8     3    20    1
     9    20    21    1
    10    21    23    1
    11    23    26    1
    12    26    27    1
    13    26    28    1
    14    26    29    1
    15    23    24    1
    16    24    25    1
    17     3     4   ar
    18     4     5    1
    19     4     6   ar
    20     6     7   ar
    21     7     8    1
    22    12    14    1
    23    14    15    2
    24    15    16    1
    25    15    17    1
    26    17    10    1
    27     7     1   ar
    28    25    23    1
    29    21    22    1
    30    16    18    1
    31    16    19    1
