@<TRIPOS>MOLECULE
*****
 42 47 0 0 0
SMALL
GASTEIGER

@<TRIPOS>ATOM
      1 N         142.7464  139.6719  161.9922 N.am    1  UNL1       -0.1907
      2 C         142.1644  138.5747  161.1511 C.2     1  UNL1        0.3219
      3 O         141.4522  137.3568  161.6604 O.2     1  UNL1       -0.2512
      4 N         142.4197  138.9092  159.7114 N.am    1  UNL1       -0.2222
      5 C         143.1595  140.2133  159.6626 C.3     1  UNL1        0.1391
      6 C         143.8923  141.5176  159.7707 C.3     1  UNL1        0.0449
      7 C         144.3498  142.2258  158.5301 C.3     1  UNL1        0.0746
      8 N         144.0746  141.6297  157.1815 N.3     1  UNL1       -0.2676
      9 C         143.3418  140.3254  157.0733 C.3     1  UNL1        0.0746
     10 C         142.8843  139.6172  158.3139 C.3     1  UNL1        0.0449
     11 C         143.3614  140.6846  161.0722 C.2     1  UNL1        0.2529
     12 O         144.0563  141.9470  161.4888 O.2     1  UNL1       -0.2724
     13 C         142.0076  138.0846  158.5281 C.ar    1  UNL1        0.1453
     14 C         140.6359  138.2456  157.9428 C.ar    1  UNL1        0.0922
     15 C         140.2239  137.4209  156.7596 C.ar    1  UNL1        0.2259
     16 O         138.8523  137.5819  156.1743 O.3     1  UNL1       -0.4919
     17 N         141.1836  136.4353  156.1615 N.ar    1  UNL1       -0.1894
     18 C         142.5553  136.2743  156.7467 C.ar    1  UNL1        0.2027
     19 N         142.9673  137.0990  157.9300 N.ar    1  UNL1       -0.2084
     20 H         138.2528  138.1976  156.5478 H       1  UNL1        0.2938
     21 C         142.6622  139.8878  166.4862 C.ar    1  UNL1        0.0392
     22 C         143.5636  138.9051  165.7993 C.ar    1  UNL1        0.0044
     23 C         143.5917  138.8331  164.3013 C.ar    1  UNL1        0.0155
     24 C         142.7184  139.7439  163.4902 C.ar    1  UNL1        0.0622
     25 C         141.8170  140.7265  164.1771 C.ar    1  UNL1        0.0155
     26 C         141.7890  140.7984  165.6751 C.ar    1  UNL1        0.0044
     27 C         142.3032  140.7620  170.2508 C.ar    1  UNL1        0.2668
     28 N         142.1521  141.1210  168.8023 N.ar    1  UNL1       -0.1886
     29 C         142.6341  139.9597  167.9842 C.ar    1  UNL1        0.2034
     30 N         143.0832  138.8831  168.9272 N.ar    1  UNL1       -0.0559
     31 O         142.8786  139.3789  170.3280 O.2     1  UNL1       -0.3344
     32 C         141.9423  141.6331  171.4173 C.3     1  UNL1        0.2300
     33 C         139.8049  142.9269  170.7047 C.3     1  UNL1        0.1748
     34 O         140.5101  142.0085  171.6582 O.3     1  UNL1       -0.3416
     35 C         144.5322  142.3380  155.9408 C.3     1  UNL1        0.1183
     36 C         145.9435  142.1732  155.4604 C.ar    1  UNL1        0.0712
     37 N         147.0841  142.2976  156.4267 N.ar    1  UNL1       -0.2471
     38 C         148.4955  142.1327  155.9463 C.ar    1  UNL1        0.0985
     39 C         148.7663  141.8435  154.4996 C.ar    1  UNL1        0.0203
     40 C         147.6258  141.7191  153.5333 C.ar    1  UNL1       -0.0015
     41 C         146.2144  141.8839  154.0137 C.ar    1  UNL1       -0.0069
     42 C         145.0739  141.7596  153.0474 C.3     1  UNL1        0.0323
@<TRIPOS>BOND
     1    33    34    1
     2    34    32    1
     3    32    27    1
     4    27    28   ar
     5    28    29   ar
     6    29    21    1
     7    21    22   ar
     8    22    23   ar
     9    23    24   ar
    10    24     1    1
    11     1     2   am
    12     2     3    2
    13     2     4   am
    14     4    13    1
    15    13    14   ar
    16    14    15   ar
    17    15    16    1
    18    15    17   ar
    19    17    18   ar
    20    18    19   ar
    21     4     5    1
    22     5     6    1
    23     6     7    1
    24     7     8    1
    25     8    35    1
    26    35    36    1
    27    36    37   ar
    28    37    38   ar
    29    38    39   ar
    30    39    40   ar
    31    40    41   ar
    32    41    42    1
    33     8     9    1
    34     9    10    1
    35     5    11    1
    36    11    12    2
    37    24    25   ar
    38    25    26   ar
    39    29    30   ar
    40    30    31   ar
    41    31    27   ar
    42    26    21   ar
    43    11     1   am
    44    19    13   ar
    45    10     5    1
    46    41    36   ar
    47    16    20    1
@<TRIPOS>MOLECULE
*****
 42 47 0 0 0
SMALL
GASTEIGER

@<TRIPOS>ATOM
      1 N         139.5817  140.1654  161.9670 N.am    1  UNL1       -0.1907
      2 C         138.6391  140.9308  161.0863 C.2     1  UNL1        0.3219
      3 O         137.5331  141.8311  161.5510 O.2     1  UNL1       -0.2512
      4 N         138.9967  140.6378  159.6593 N.am    1  UNL1       -0.2222
      5 C         140.1605  139.6912  159.6581 C.3     1  UNL1        0.1391
      6 C         141.3179  138.7500  159.8136 C.3     1  UNL1        0.0449
      7 C         142.0002  138.1932  158.5994 C.3     1  UNL1        0.0746
      8 N         141.5250  138.5777  157.2296 N.3     1  UNL1       -0.2676
      9 C         140.3676  139.5189  157.0740 C.3     1  UNL1        0.0746
     10 C         139.6853  140.0757  158.2882 C.3     1  UNL1        0.0449
     11 C         140.5220  139.3993  161.0843 C.2     1  UNL1        0.2529
     12 O         141.6293  138.4993  161.5466 O.2     1  UNL1       -0.2724
     13 C         138.3111  141.1936  158.4465 C.ar    1  UNL1        0.1453
     14 C         138.7717  142.4922  157.8537 C.ar    1  UNL1        0.0922
     15 C         138.0861  143.0480  156.6409 C.ar    1  UNL1        0.2259
     16 O         138.5466  144.3466  156.0480 O.3     1  UNL1       -0.4919
     17 N         136.9398  142.3053  156.0208 N.ar    1  UNL1       -0.1894
     18 C         136.4792  141.0067  156.6137 C.ar    1  UNL1        0.2027
     19 N         137.1649  140.4509  157.8265 N.ar    1  UNL1       -0.2084
     20 H         139.2627  144.8106  156.4353 H       1  UNL1        0.2938
     21 C         139.5879  140.1670  166.4670 C.ar    1  UNL1        0.0392
     22 C         140.7601  140.7245  165.7151 C.ar    1  UNL1        0.0044
     23 C         140.7581  140.7239  164.2151 C.ar    1  UNL1        0.0155
     24 C         139.5838  140.1659  163.4670 C.ar    1  UNL1        0.0622
     25 C         138.4117  139.6085  164.2188 C.ar    1  UNL1        0.0155
     26 C         138.4137  139.6091  165.7188 C.ar    1  UNL1        0.0044
     27 C         140.2498  140.5307  170.2742 C.ar    1  UNL1        0.2668
     28 N         140.6538  140.7541  168.8470 N.ar    1  UNL1       -0.1886
     29 C         139.5900  140.1676  167.9669 C.ar    1  UNL1        0.2034
     30 N         138.5286  139.5818  168.8503 N.ar    1  UNL1       -0.0559
     31 O         138.9365  139.8062  170.2763 O.2     1  UNL1       -0.3344
     32 C         141.0235  140.9571  171.4865 C.3     1  UNL1        0.2300
     33 C         142.6089  142.8589  170.6994 C.3     1  UNL1        0.1748
     34 O         141.5167  142.3689  171.6032 O.3     1  UNL1       -0.3416
     35 C         142.2074  138.0209  156.0153 C.3     1  UNL1        0.1183
     36 C         142.3495  136.5369  155.8491 C.ar    1  UNL1        0.0712
     37 N         143.5976  135.8463  156.3133 N.ar    1  UNL1       -0.2471
     38 C         143.7396  134.3623  156.1471 C.ar    1  UNL1        0.0985
     39 C         142.6336  133.5689  155.5168 C.ar    1  UNL1        0.0203
     40 C         141.3856  134.2595  155.0526 C.ar    1  UNL1       -0.0015
     41 C         141.2435  135.7435  155.2188 C.ar    1  UNL1       -0.0069
     42 C         139.9954  136.4341  154.7547 C.3     1  UNL1        0.0323
@<TRIPOS>BOND
     1    33    34    1
     2    34    32    1
     3    32    27    1
     4    27    28   ar
     5    28    29   ar
     6    29    21    1
     7    21    22   ar
     8    22    23   ar
     9    23    24   ar
    10    24     1    1
    11     1     2   am
    12     2     3    2
    13     2     4   am
    14     4    13    1
    15    13    14   ar
    16    14    15   ar
    17    15    16    1
    18    15    17   ar
    19    17    18   ar
    20    18    19   ar
    21     4     5    1
    22     5     6    1
    23     6     7    1
    24     7     8    1
    25     8    35    1
    26    35    36    1
    27    36    37   ar
    28    37    38   ar
    29    38    39   ar
    30    39    40   ar
    31    40    41   ar
    32    41    42    1
    33     8     9    1
    34     9    10    1
    35     5    11    1
    36    11    12    2
    37    24    25   ar
    38    25    26   ar
    39    29    30   ar
    40    30    31   ar
    41    31    27   ar
    42    26    21   ar
    43    11     1   am
    44    19    13   ar
    45    10     5    1
    46    41    36   ar
    47    16    20    1
@<TRIPOS>MOLECULE
*****
 42 47 0 0 0
SMALL
GASTEIGER

@<TRIPOS>ATOM
      1 N         143.3432  141.7946  160.5859 N.am    1  UNL1       -0.1907
      2 C         141.9880  142.4236  160.7191 C.2     1  UNL1        0.3219
      3 O         141.2354  143.1344  159.6337 O.2     1  UNL1       -0.2512
      4 N         141.5175  142.2169  162.1284 N.am    1  UNL1       -0.2222
      5 C         142.5820  141.4602  162.8662 C.3     1  UNL1        0.1391
      6 C         143.7285  140.7047  163.4701 C.3     1  UNL1        0.0449
      7 C         143.6742  140.2831  164.9085 C.3     1  UNL1        0.0746
      8 N         142.4733  140.6170  165.7431 N.3     1  UNL1       -0.2676
      9 C         141.3269  141.3725  165.1393 C.3     1  UNL1        0.0746
     10 C         141.3812  141.7941  163.7008 C.3     1  UNL1        0.0449
     11 C         143.7104  141.1992  161.9129 C.2     1  UNL1        0.2529
     12 O         144.9825  140.4707  162.2307 O.2     1  UNL1       -0.2724
     13 C         140.2119  142.6848  162.6996 C.ar    1  UNL1        0.1453
     14 C         139.0042  141.7975  162.6355 C.ar    1  UNL1        0.0922
     15 C         137.6986  142.2655  163.2068 C.ar    1  UNL1        0.2259
     16 O         136.4909  141.3782  163.1427 O.3     1  UNL1       -0.4919
     17 N         137.6006  143.6208  163.8422 N.ar    1  UNL1       -0.1894
     18 C         138.8083  144.5081  163.9062 C.ar    1  UNL1        0.2027
     19 N         140.1139  144.0401  163.3350 N.ar    1  UNL1       -0.2084
     20 H         136.5520  140.5316  162.7458 H       1  UNL1        0.2938
     21 C         145.8648  141.7088  156.8598 C.ar    1  UNL1        0.0392
     22 C         144.7851  140.6866  157.0585 C.ar    1  UNL1        0.0044
     23 C         143.9446  140.7152  158.3005 C.ar    1  UNL1        0.0155
     24 C         144.1837  141.7660  159.3439 C.ar    1  UNL1        0.0622
     25 C         145.2633  142.7882  159.1452 C.ar    1  UNL1        0.0155
     26 C         146.1038  142.7596  157.9031 C.ar    1  UNL1        0.0044
     27 C         148.5790  141.9131  154.0927 C.ar    1  UNL1        0.2668
     28 N         148.1382  142.1114  155.5127 N.ar    1  UNL1       -0.1886
     29 C         146.7053  141.6802  155.6177 C.ar    1  UNL1        0.2034
     30 N         146.2606  141.2155  154.2627 N.ar    1  UNL1       -0.0559
     31 O         147.4186  141.3594  153.3201 O.2     1  UNL1       -0.3344
     32 C         149.9411  142.2154  153.5420 C.3     1  UNL1        0.2300
     33 C         151.6929  144.0664  153.0370 C.3     1  UNL1        0.1748
     34 O         150.2675  143.6002  153.0668 O.3     1  UNL1       -0.3416
     35 C         142.4190  140.1953  167.1817 C.3     1  UNL1        0.1183
     36 C         141.8088  141.1041  168.2071 C.ar    1  UNL1        0.0712
     37 N         142.6349  142.1865  168.8364 N.ar    1  UNL1       -0.2471
     38 C         142.0246  143.0954  169.8619 C.ar    1  UNL1        0.0985
     39 C         140.5883  142.9219  170.2580 C.ar    1  UNL1        0.0203
     40 C         139.7623  141.8395  169.6287 C.ar    1  UNL1       -0.0015
     41 C         140.3725  140.9306  168.6033 C.ar    1  UNL1       -0.0069
     42 C         139.5464  139.8482  167.9740 C.3     1  UNL1        0.0323
@<TRIPOS>BOND
     1    33    34    1
     2    34    32    1
     3    32    27    1
     4    27    28   ar
     5    28    29   ar
     6    29    21    1
     7    21    22   ar
     8    22    23   ar
     9    23    24   ar
    10    24     1    1
    11     1     2   am
    12     2     3    2
    13     2     4   am
    14     4    13    1
    15    13    14   ar
    16    14    15   ar
    17    15    16    1
    18    15    17   ar
    19    17    18   ar
    20    18    19   ar
    21     4     5    1
    22     5     6    1
    23     6     7    1
    24     7     8    1
    25     8    35    1
    26    35    36    1
    27    36    37   ar
    28    37    38   ar
    29    38    39   ar
    30    39    40   ar
    31    40    41   ar
    32    41    42    1
    33     8     9    1
    34     9    10    1
    35     5    11    1
    36    11    12    2
    37    24    25   ar
    38    25    26   ar
    39    29    30   ar
    40    30    31   ar
    41    31    27   ar
    42    26    21   ar
    43    11     1   am
    44    19    13   ar
    45    10     5    1
    46    41    36   ar
    47    16    20    1
@<TRIPOS>MOLECULE
*****
 42 47 0 0 0
SMALL
GASTEIGER

@<TRIPOS>ATOM
      1 N         141.4119  139.4012  160.4277 N.am    1  UNL1       -0.1907
      2 C         141.9788  140.7837  160.5597 C.2     1  UNL1        0.3219
      3 O         142.5917  141.5943  159.4565 O.2     1  UNL1       -0.2512
      4 N         141.8251  141.2133  161.9886 N.am    1  UNL1       -0.2222
      5 C         141.1631  140.0963  162.7399 C.3     1  UNL1        0.1391
      6 C         140.4993  138.9003  163.3554 C.3     1  UNL1        0.0449
      7 C         140.1535  138.9028  164.8149 C.3     1  UNL1        0.0746
      8 N         140.4715  140.1013  165.6590 N.3     1  UNL1       -0.2676
      9 C         141.1353  141.2973  165.0435 C.3     1  UNL1        0.0746
     10 C         141.4812  141.2948  163.5839 C.3     1  UNL1        0.0449
     11 C         140.9078  138.9763  161.7752 C.2     1  UNL1        0.2529
     12 O         140.2618  137.6623  162.1007 O.2     1  UNL1       -0.2724
     13 C         142.2573  142.5288  162.5652 C.ar    1  UNL1        0.1453
     14 C         141.3541  143.7226  162.4697 C.ar    1  UNL1        0.0922
     15 C         141.7864  145.0382  163.0463 C.ar    1  UNL1        0.2259
     16 O         140.8832  146.2319  162.9509 O.3     1  UNL1       -0.4919
     17 N         143.1219  145.1600  163.7184 N.ar    1  UNL1       -0.1894
     18 C         144.0251  143.9662  163.8139 C.ar    1  UNL1        0.2027
     19 N         143.5928  142.6507  163.2373 N.ar    1  UNL1       -0.2084
     20 H         140.0490  146.1559  162.5310 H       1  UNL1        0.2938
     21 C         141.2517  136.9573  156.6526 C.ar    1  UNL1        0.0392
     22 C         140.0120  137.6293  157.1643 C.ar    1  UNL1        0.0044
     23 C         140.0654  138.4439  158.4227 C.ar    1  UNL1        0.0155
     24 C         141.3585  138.5866  159.1694 C.ar    1  UNL1        0.0622
     25 C         142.5981  137.9147  158.6577 C.ar    1  UNL1        0.0155
     26 C         142.5447  137.1001  157.3994 C.ar    1  UNL1        0.0044
     27 C         141.5395  134.3614  153.7814 C.ar    1  UNL1        0.2668
     28 N         141.8520  134.8100  155.1782 N.ar    1  UNL1       -0.1886
     29 C         141.1983  136.1427  155.3943 C.ar    1  UNL1        0.2034
     30 N         140.4818  136.5177  154.1309 N.ar    1  UNL1       -0.0559
     31 O         140.6927  135.4168  153.1341 O.2     1  UNL1       -0.3344
     32 C         141.9940  133.0820  153.1439 C.3     1  UNL1        0.2300
     33 C         142.7207  131.1895  154.7688 C.3     1  UNL1        0.1748
     34 O         143.0762  132.2666  153.7873 O.3     1  UNL1       -0.3416
     35 C         140.1257  140.1038  167.1186 C.3     1  UNL1        0.1183
     36 C         140.9164  140.9461  168.0753 C.ar    1  UNL1        0.0712
     37 N         140.3495  142.2394  168.5811 N.ar    1  UNL1       -0.2471
     38 C         141.1404  143.0817  169.5379 C.ar    1  UNL1        0.0985
     39 C         142.4980  142.6306  169.9888 C.ar    1  UNL1        0.0203
     40 C         143.0648  141.3372  169.4829 C.ar    1  UNL1       -0.0015
     41 C         142.2741  140.4949  168.5263 C.ar    1  UNL1       -0.0069
     42 C         142.8410  139.2016  168.0205 C.3     1  UNL1        0.0323
@<TRIPOS>BOND
     1    33    34    1
     2    34    32    1
     3    32    27    1
     4    27    28   ar
     5    28    29   ar
     6    29    21    1
     7    21    22   ar
     8    22    23   ar
     9    23    24   ar
    10    24     1    1
    11     1     2   am
    12     2     3    2
    13     2     4   am
    14     4    13    1
    15    13    14   ar
    16    14    15   ar
    17    15    16    1
    18    15    17   ar
    19    17    18   ar
    20    18    19   ar
    21     4     5    1
    22     5     6    1
    23     6     7    1
    24     7     8    1
    25     8    35    1
    26    35    36    1
    27    36    37   ar
    28    37    38   ar
    29    38    39   ar
    30    39    40   ar
    31    40    41   ar
    32    41    42    1
    33     8     9    1
    34     9    10    1
    35     5    11    1
    36    11    12    2
    37    24    25   ar
    38    25    26   ar
    39    29    30   ar
    40    30    31   ar
    41    31    27   ar
    42    26    21   ar
    43    11     1   am
    44    19    13   ar
    45    10     5    1
    46    41    36   ar
    47    16    20    1
@<TRIPOS>MOLECULE
*****
 42 47 0 0 0
SMALL
GASTEIGER

@<TRIPOS>ATOM
      1 N         141.0411  139.3367  160.6691 N.am    1  UNL1       -0.1907
      2 C         140.4459  140.6990  160.8691 C.2     1  UNL1        0.3219
      3 O         139.8623  141.5720  159.7982 O.2     1  UNL1       -0.2512
      4 N         140.5367  141.0348  162.3282 N.am    1  UNL1       -0.2222
      5 C         141.1881  139.8801  163.0301 C.3     1  UNL1        0.1391
      6 C         141.8480  138.6557  163.5914 C.3     1  UNL1        0.0449
      7 C         142.1369  138.5662  165.0606 C.3     1  UNL1        0.0746
      8 N         141.7659  139.7012  165.9684 N.3     1  UNL1       -0.2676
      9 C         141.1060  140.9257  165.4070 C.3     1  UNL1        0.0746
     10 C         140.8171  141.0152  163.9379 C.3     1  UNL1        0.0449
     11 C         141.4998  138.8306  162.0047 C.2     1  UNL1        0.2529
     12 O         142.1551  137.5074  162.2685 O.2     1  UNL1       -0.2724
     13 C         140.0600  142.3027  162.9725 C.ar    1  UNL1        0.1453
     14 C         140.9729  143.4898  163.0582 C.ar    1  UNL1        0.0922
     15 C         140.4961  144.7577  163.7024 C.ar    1  UNL1        0.2259
     16 O         141.4090  145.9448  163.7882 O.3     1  UNL1       -0.4919
     17 N         139.1063  144.8386  164.2611 N.ar    1  UNL1       -0.1894
     18 C         138.1933  143.6515  164.1754 C.ar    1  UNL1        0.2027
     19 N         138.6702  142.3836  163.5311 N.ar    1  UNL1       -0.2084
     20 H         142.2771  145.8943  163.4392 H       1  UNL1        0.2938
     21 C         141.3894  137.1517  156.7507 C.ar    1  UNL1        0.0392
     22 C         142.6039  137.3528  157.6078 C.ar    1  UNL1        0.0044
     23 C         142.4878  138.0812  158.9140 C.ar    1  UNL1        0.0155
     24 C         141.1572  138.6083  159.3630 C.ar    1  UNL1        0.0622
     25 C         139.9428  138.4072  158.5059 C.ar    1  UNL1        0.0155
     26 C         140.0589  137.6789  157.1998 C.ar    1  UNL1        0.0044
     27 C         141.6393  134.6470  153.7961 C.ar    1  UNL1        0.2668
     28 N         141.5011  134.9345  155.2618 N.ar    1  UNL1       -0.1886
     29 C         141.5055  136.4233  155.4446 C.ar    1  UNL1        0.2034
     30 N         141.6464  137.0559  154.0918 N.ar    1  UNL1       -0.0559
     31 O         141.7291  135.9581  153.0730 O.2     1  UNL1       -0.3344
     32 C         141.6805  133.2871  153.1645 C.3     1  UNL1        0.2300
     33 C         143.0860  131.7071  154.6739 C.3     1  UNL1        0.1748
     34 O         142.8769  132.4042  153.3623 O.3     1  UNL1       -0.3416
     35 C         142.0548  139.6118  167.4376 C.3     1  UNL1        0.1183
     36 C         141.2804  140.4548  168.4070 C.ar    1  UNL1        0.0712
     37 N         139.9826  139.9529  168.9672 N.ar    1  UNL1       -0.2471
     38 C         139.2083  140.7960  169.9366 C.ar    1  UNL1        0.0985
     39 C         139.7317  142.1408  170.3457 C.ar    1  UNL1        0.0203
     40 C         141.0295  142.6427  169.7855 C.ar    1  UNL1       -0.0015
     41 C         141.8039  141.7997  168.8161 C.ar    1  UNL1       -0.0069
     42 C         143.1017  142.3015  168.2559 C.3     1  UNL1        0.0323
@<TRIPOS>BOND
     1    33    34    1
     2    34    32    1
     3    32    27    1
     4    27    28   ar
     5    28    29   ar
     6    29    21    1
     7    21    22   ar
     8    22    23   ar
     9    23    24   ar
    10    24     1    1
    11     1     2   am
    12     2     3    2
    13     2     4   am
    14     4    13    1
    15    13    14   ar
    16    14    15   ar
    17    15    16    1
    18    15    17   ar
    19    17    18   ar
    20    18    19   ar
    21     4     5    1
    22     5     6    1
    23     6     7    1
    24     7     8    1
    25     8    35    1
    26    35    36    1
    27    36    37   ar
    28    37    38   ar
    29    38    39   ar
    30    39    40   ar
    31    40    41   ar
    32    41    42    1
    33     8     9    1
    34     9    10    1
    35     5    11    1
    36    11    12    2
    37    24    25   ar
    38    25    26   ar
    39    29    30   ar
    40    30    31   ar
    41    31    27   ar
    42    26    21   ar
    43    11     1   am
    44    19    13   ar
    45    10     5    1
    46    41    36   ar
    47    16    20    1
@<TRIPOS>MOLECULE
*****
 42 47 0 0 0
SMALL
GASTEIGER

@<TRIPOS>ATOM
      1 N         143.8445  141.5847  159.2693 N.am    1  UNL1       -0.1907
      2 C         143.0519  142.7542  159.7735 C.2     1  UNL1        0.3219
      3 O         142.9815  144.1111  159.1384 O.2     1  UNL1       -0.2512
      4 N         142.3421  142.3283  161.0244 N.am    1  UNL1       -0.2222
      5 C         142.6960  140.8956  161.2934 C.3     1  UNL1        0.1391
      6 C         143.1380  139.4690  161.4324 C.3     1  UNL1        0.0449
      7 C         142.6492  138.6413  162.5839 C.3     1  UNL1        0.0746
      8 N         141.7184  139.2402  163.5963 N.3     1  UNL1       -0.2676
      9 C         141.2764  140.6668  163.4572 C.3     1  UNL1        0.0746
     10 C         141.7652  141.4945  162.3058 C.3     1  UNL1        0.0449
     11 C         143.6246  140.4360  160.2086 C.2     1  UNL1        0.2529
     12 O         144.2273  139.0681  160.0849 O.2     1  UNL1       -0.2724
     13 C         141.4373  143.1846  161.8598 C.ar    1  UNL1        0.1453
     14 C         139.9659  143.2253  161.5712 C.ar    1  UNL1        0.0922
     15 C         139.0611  144.0817  162.4066 C.ar    1  UNL1        0.2259
     16 O         137.5897  144.1223  162.1180 O.3     1  UNL1       -0.4919
     17 N         139.6276  144.8975  163.5307 N.ar    1  UNL1       -0.1894
     18 C         141.0990  144.8568  163.8193 C.ar    1  UNL1        0.2027
     19 N         142.0038  144.0005  162.9839 N.ar    1  UNL1       -0.2084
     20 H         137.2357  143.6127  161.4158 H       1  UNL1        0.2938
     21 C         146.4285  141.5316  155.5856 C.ar    1  UNL1        0.0392
     22 C         146.7039  142.5189  156.6807 C.ar    1  UNL1        0.0044
     23 C         145.8426  142.5366  157.9086 C.ar    1  UNL1        0.0155
     24 C         144.7059  141.5670  158.0414 C.ar    1  UNL1        0.0622
     25 C         144.4305  140.5797  156.9463 C.ar    1  UNL1        0.0155
     26 C         145.2918  140.5620  155.7184 C.ar    1  UNL1        0.0044
     27 C         149.2111  141.6742  152.8833 C.ar    1  UNL1        0.2668
     28 N         148.7601  141.8070  154.3077 N.ar    1  UNL1       -0.1886
     29 C         147.2898  141.5139  154.3577 C.ar    1  UNL1        0.2034
     30 N         146.8322  141.1999  152.9641 N.ar    1  UNL1       -0.0559
     31 O         148.0196  141.2990  152.0529 O.2     1  UNL1       -0.3344
     32 C         150.6083  141.8805  152.3780 C.3     1  UNL1        0.2300
     33 C         151.6981  144.1119  153.1416 C.3     1  UNL1        0.1748
     34 O         151.0949  143.2636  152.0616 O.3     1  UNL1       -0.3416
     35 C         141.2295  138.4124  164.7478 C.3     1  UNL1        0.1183
     36 C         141.0165  139.0466  166.0903 C.ar    1  UNL1        0.0712
     37 N         142.1906  139.3371  166.9774 N.ar    1  UNL1       -0.2471
     38 C         141.9774  139.9713  168.3199 C.ar    1  UNL1        0.0985
     39 C         140.5902  140.3150  168.7753 C.ar    1  UNL1        0.0203
     40 C         139.4161  140.0245  167.8882 C.ar    1  UNL1       -0.0015
     41 C         139.6292  139.3903  166.5457 C.ar    1  UNL1       -0.0069
     42 C         138.4550  139.0998  165.6586 C.3     1  UNL1        0.0323
@<TRIPOS>BOND
     1    33    34    1
     2    34    32    1
     3    32    27    1
     4    27    28   ar
     5    28    29   ar
     6    29    21    1
     7    21    22   ar
     8    22    23   ar
     9    23    24   ar
    10    24     1    1
    11     1     2   am
    12     2     3    2
    13     2     4   am
    14     4    13    1
    15    13    14   ar
    16    14    15   ar
    17    15    16    1
    18    15    17   ar
    19    17    18   ar
    20    18    19   ar
    21     4     5    1
    22     5     6    1
    23     6     7    1
    24     7     8    1
    25     8    35    1
    26    35    36    1
    27    36    37   ar
    28    37    38   ar
    29    38    39   ar
    30    39    40   ar
    31    40    41   ar
    32    41    42    1
    33     8     9    1
    34     9    10    1
    35     5    11    1
    36    11    12    2
    37    24    25   ar
    38    25    26   ar
    39    29    30   ar
    40    30    31   ar
    41    31    27   ar
    42    26    21   ar
    43    11     1   am
    44    19    13   ar
    45    10     5    1
    46    41    36   ar
    47    16    20    1
@<TRIPOS>MOLECULE
*****
 42 47 0 0 0
SMALL
GASTEIGER

@<TRIPOS>ATOM
      1 N         141.6469  138.5725  158.9310 N.am    1  UNL1       -0.1907
      2 C         142.7302  139.5571  159.2585 C.2     1  UNL1        0.3219
      3 O         143.9996  139.7606  158.4858 O.2     1  UNL1       -0.2512
      4 N         142.3212  140.3024  160.4943 N.am    1  UNL1       -0.2222
      5 C         140.9850  139.7785  160.9307 C.3     1  UNL1        0.1391
      6 C         139.6558  139.1578  161.2436 C.3     1  UNL1        0.0449
      7 C         138.8738  139.6216  162.4366 C.3     1  UNL1        0.0746
      8 N         139.4209  140.7061  163.3166 N.3     1  UNL1       -0.2676
      9 C         140.7501  141.3269  163.0037 C.3     1  UNL1        0.0746
     10 C         141.5321  140.8631  161.8107 C.3     1  UNL1        0.0449
     11 C         140.5683  138.7094  159.9645 C.2     1  UNL1        0.2529
     12 O         139.2963  137.9164  160.0218 O.2     1  UNL1       -0.2724
     13 C         143.1097  141.3820  161.1743 C.ar    1  UNL1        0.1453
     14 C         144.3506  141.0343  161.9420 C.ar    1  UNL1        0.0922
     15 C         145.1391  142.1140  162.6220 C.ar    1  UNL1        0.2259
     16 O         146.3799  141.7662  163.3896 O.3     1  UNL1       -0.4919
     17 N         144.6868  143.5415  162.5345 N.ar    1  UNL1       -0.1894
     18 C         143.4459  143.8893  161.7669 C.ar    1  UNL1        0.2027
     19 N         142.6574  142.8096  161.0868 N.ar    1  UNL1       -0.2084
     20 H         146.6625  140.8745  163.4443 H       1  UNL1        0.2938
     21 C         141.6348  135.7109  155.4582 C.ar    1  UNL1        0.0392
     22 C         142.7840  135.7156  156.4222 C.ar    1  UNL1        0.0044
     23 C         142.7881  136.6695  157.5798 C.ar    1  UNL1        0.0155
     24 C         141.6428  137.6187  157.7734 C.ar    1  UNL1        0.0622
     25 C         140.4937  137.6139  156.8095 C.ar    1  UNL1        0.0155
     26 C         140.4896  136.6600  155.6519 C.ar    1  UNL1        0.0044
     27 C         142.0802  132.8285  152.8971 C.ar    1  UNL1        0.2668
     28 N         142.3656  133.4511  154.2316 N.ar    1  UNL1       -0.1886
     29 C         141.6307  134.7570  154.3006 C.ar    1  UNL1        0.2034
     30 N         140.8911  134.9414  153.0088 N.ar    1  UNL1       -0.0559
     31 O         141.1689  133.7496  152.1414 O.2     1  UNL1       -0.3344
     32 C         142.6126  131.5154  152.4049 C.3     1  UNL1        0.2300
     33 C         144.1095  130.3252  154.1634 C.3     1  UNL1        0.1748
     34 O         142.8387  130.3889  153.3691 O.3     1  UNL1       -0.3416
     35 C         138.6388  141.1699  164.5097 C.3     1  UNL1        0.1183
     36 C         139.2684  141.1555  165.8710 C.ar    1  UNL1        0.0712
     37 N         140.0909  142.3231  166.3294 N.ar    1  UNL1       -0.2471
     38 C         140.7205  142.3086  167.6909 C.ar    1  UNL1        0.0985
     39 C         140.5276  141.1265  168.5938 C.ar    1  UNL1        0.0203
     40 C         139.7051  139.9589  168.1354 C.ar    1  UNL1       -0.0015
     41 C         139.0755  139.9733  166.7741 C.ar    1  UNL1       -0.0069
     42 C         138.2530  138.8057  166.3157 C.3     1  UNL1        0.0323
@<TRIPOS>BOND
     1    33    34    1
     2    34    32    1
     3    32    27    1
     4    27    28   ar
     5    28    29   ar
     6    29    21    1
     7    21    22   ar
     8    22    23   ar
     9    23    24   ar
    10    24     1    1
    11     1     2   am
    12     2     3    2
    13     2     4   am
    14     4    13    1
    15    13    14   ar
    16    14    15   ar
    17    15    16    1
    18    15    17   ar
    19    17    18   ar
    20    18    19   ar
    21     4     5    1
    22     5     6    1
    23     6     7    1
    24     7     8    1
    25     8    35    1
    26    35    36    1
    27    36    37   ar
    28    37    38   ar
    29    38    39   ar
    30    39    40   ar
    31    40    41   ar
    32    41    42    1
    33     8     9    1
    34     9    10    1
    35     5    11    1
    36    11    12    2
    37    24    25   ar
    38    25    26   ar
    39    29    30   ar
    40    30    31   ar
    41    31    27   ar
    42    26    21   ar
    43    11     1   am
    44    19    13   ar
    45    10     5    1
    46    41    36   ar
    47    16    20    1
@<TRIPOS>MOLECULE
*****
 42 47 0 0 0
SMALL
GASTEIGER

@<TRIPOS>ATOM
      1 N         140.7533  139.8428  162.6034 N.am    1  UNL1       -0.1907
      2 C         140.6199  138.7323  161.6039 C.2     1  UNL1        0.3219
      3 O         140.0149  137.3838  161.8598 O.2     1  UNL1       -0.2512
      4 N         141.1976  139.2071  160.3036 N.am    1  UNL1       -0.2222
      5 C         141.6882  140.6111  160.4994 C.3     1  UNL1        0.1391
      6 C         142.1291  142.0028  160.8438 C.3     1  UNL1        0.0449
      7 C         142.7800  142.8628  159.8014 C.3     1  UNL1        0.0746
      8 N         142.9898  142.3311  158.4145 N.3     1  UNL1       -0.2676
      9 C         142.5489  140.9394  158.0702 C.3     1  UNL1        0.0746
     10 C         141.8981  140.0794  159.1126 C.3     1  UNL1        0.0449
     11 C         141.4136  141.0040  161.9208 C.2     1  UNL1        0.2529
     12 O         141.7416  142.3259  162.5492 O.2     1  UNL1       -0.2724
     13 C         141.2719  138.4168  159.0309 C.ar    1  UNL1        0.1453
     14 C         140.0641  138.2998  158.1491 C.ar    1  UNL1        0.0922
     15 C         140.1385  137.5095  156.8764 C.ar    1  UNL1        0.2259
     16 O         138.9307  137.3926  155.9945 O.3     1  UNL1       -0.4919
     17 N         141.4206  136.8360  156.4854 N.ar    1  UNL1       -0.1894
     18 C         142.6283  136.9529  157.3673 C.ar    1  UNL1        0.2027
     19 N         142.5540  137.7433  158.6400 N.ar    1  UNL1       -0.2084
     20 H         138.1299  137.8132  156.2387 H       1  UNL1        0.2938
     21 C         139.4090  139.7137  166.8959 C.ar    1  UNL1        0.0392
     22 C         140.8664  139.8552  166.5704 C.ar    1  UNL1        0.0044
     23 C         141.3145  139.8982  165.1395 C.ar    1  UNL1        0.0155
     24 C         140.3052  139.7998  164.0343 C.ar    1  UNL1        0.0622
     25 C         138.8479  139.6583  164.3598 C.ar    1  UNL1        0.0155
     26 C         138.3998  139.6152  165.7907 C.ar    1  UNL1        0.0044
     27 C         137.6153  139.3105  170.3144 C.ar    1  UNL1        0.2668
     28 N         137.6361  139.1699  168.8212 N.ar    1  UNL1       -0.1886
     29 C         138.9609  139.6706  168.3268 C.ar    1  UNL1        0.2034
     30 N         139.7588  140.1207  169.5145 N.ar    1  UNL1       -0.0559
     31 O         138.9272  139.8981  170.7429 O.2     1  UNL1       -0.3344
     32 C         136.4816  138.9303  171.2200 C.3     1  UNL1        0.2300
     33 C         136.3585  136.7964  172.6969 C.3     1  UNL1        0.1748
     34 O         136.1085  137.4874  171.3893 O.3     1  UNL1       -0.3416
     35 C         143.6407  143.1912  157.3721 C.3     1  UNL1        0.1183
     36 C         144.5440  142.5728  156.3466 C.ar    1  UNL1        0.0712
     37 N         145.9581  142.2242  156.7055 N.ar    1  UNL1       -0.2471
     38 C         146.8615  141.6058  155.6800 C.ar    1  UNL1        0.0985
     39 C         146.3507  141.3359  154.2957 C.ar    1  UNL1        0.0203
     40 C         144.9366  141.6845  153.9369 C.ar    1  UNL1       -0.0015
     41 C         144.0333  142.3029  154.9623 C.ar    1  UNL1       -0.0069
     42 C         142.6191  142.6515  154.6034 C.3     1  UNL1        0.0323
@<TRIPOS>BOND
     1    33    34    1
     2    34    32    1
     3    32    27    1
     4    27    28   ar
     5    28    29   ar
     6    29    21    1
     7    21    22   ar
     8    22    23   ar
     9    23    24   ar
    10    24     1    1
    11     1     2   am
    12     2     3    2
    13     2     4   am
    14     4    13    1
    15    13    14   ar
    16    14    15   ar
    17    15    16    1
    18    15    17   ar
    19    17    18   ar
    20    18    19   ar
    21     4     5    1
    22     5     6    1
    23     6     7    1
    24     7     8    1
    25     8    35    1
    26    35    36    1
    27    36    37   ar
    28    37    38   ar
    29    38    39   ar
    30    39    40   ar
    31    40    41   ar
    32    41    42    1
    33     8     9    1
    34     9    10    1
    35     5    11    1
    36    11    12    2
    37    24    25   ar
    38    25    26   ar
    39    29    30   ar
    40    30    31   ar
    41    31    27   ar
    42    26    21   ar
    43    11     1   am
    44    19    13   ar
    45    10     5    1
    46    41    36   ar
    47    16    20    1
@<TRIPOS>MOLECULE
*****
 42 47 0 0 0
SMALL
GASTEIGER

@<TRIPOS>ATOM
      1 N         140.1527  140.0836  162.4673 N.am    1  UNL1       -0.1907
      2 C         140.2148  138.9480  161.4892 C.2     1  UNL1        0.3219
      3 O         139.9507  137.5039  161.7970 O.2     1  UNL1       -0.2512
      4 N         140.5872  139.5100  160.1493 N.am    1  UNL1       -0.2222
      5 C         140.7554  140.9931  160.2992 C.3     1  UNL1        0.1391
      6 C         140.8874  142.4565  160.6007 C.3     1  UNL1        0.0449
      7 C         141.2588  143.4165  159.5096 C.3     1  UNL1        0.0746
      8 N         141.4983  142.9130  158.1171 N.3     1  UNL1       -0.2676
      9 C         141.3663  141.4496  157.8156 C.3     1  UNL1        0.0746
     10 C         140.9948  140.4896  158.9067 C.3     1  UNL1        0.0449
     11 C         140.4868  141.3476  161.7318 C.2     1  UNL1        0.2529
     12 O         140.5426  142.7242  162.3248 O.2     1  UNL1       -0.2724
     13 C         140.7610  138.7267  158.8820 C.ar    1  UNL1        0.1453
     14 C         142.1197  138.2269  158.4895 C.ar    1  UNL1        0.0922
     15 C         142.2934  137.4436  157.2222 C.ar    1  UNL1        0.2259
     16 O         143.6522  136.9437  156.8297 O.3     1  UNL1       -0.4919
     17 N         141.1085  137.1601  156.3472 N.ar    1  UNL1       -0.1894
     18 C         139.7498  137.6599  156.7397 C.ar    1  UNL1        0.2027
     19 N         139.5760  138.4432  158.0070 N.ar    1  UNL1       -0.2084
     20 H         144.3924  137.1208  157.3762 H       1  UNL1        0.2938
     21 C         139.1418  139.7562  166.8400 C.ar    1  UNL1        0.0392
     22 C         140.5264  140.1493  166.4177 C.ar    1  UNL1        0.0044
     23 C         140.8634  140.2584  164.9601 C.ar    1  UNL1        0.0155
     24 C         139.8157  139.9744  163.9249 C.ar    1  UNL1        0.0622
     25 C         138.4312  139.5813  164.3471 C.ar    1  UNL1        0.0155
     26 C         138.0942  139.4722  165.8047 C.ar    1  UNL1        0.0044
     27 C         137.6142  139.1965  170.3640 C.ar    1  UNL1        0.2668
     28 N         137.5194  139.1257  168.8687 N.ar    1  UNL1       -0.1886
     29 C         138.8048  139.6470  168.2975 C.ar    1  UNL1        0.2034
     30 N         139.6939  140.0400  169.4399 N.ar    1  UNL1       -0.0559
     31 O         138.9581  139.7616  170.7171 O.2     1  UNL1       -0.3344
     32 C         136.5516  138.7761  171.3357 C.3     1  UNL1        0.2300
     33 C         136.2094  136.6470  172.7848 C.3     1  UNL1        0.1748
     34 O         136.1696  137.3301  171.4500 O.3     1  UNL1       -0.3416
     35 C         141.8697  143.8730  157.0260 C.3     1  UNL1        0.1183
     36 C         140.8236  144.7607  156.4198 C.ar    1  UNL1        0.0712
     37 N         140.4779  146.0663  157.0725 N.ar    1  UNL1       -0.2471
     38 C         139.4317  146.9540  156.4662 C.ar    1  UNL1        0.0985
     39 C         138.7313  146.5362  155.2074 C.ar    1  UNL1        0.0203
     40 C         139.0770  145.2306  154.5547 C.ar    1  UNL1       -0.0015
     41 C         140.1231  144.3429  155.1609 C.ar    1  UNL1       -0.0069
     42 C         140.4688  143.0374  154.5082 C.3     1  UNL1        0.0323
@<TRIPOS>BOND
     1    33    34    1
     2    34    32    1
     3    32    27    1
     4    27    28   ar
     5    28    29   ar
     6    29    21    1
     7    21    22   ar
     8    22    23   ar
     9    23    24   ar
    10    24     1    1
    11     1     2   am
    12     2     3    2
    13     2     4   am
    14     4    13    1
    15    13    14   ar
    16    14    15   ar
    17    15    16    1
    18    15    17   ar
    19    17    18   ar
    20    18    19   ar
    21     4     5    1
    22     5     6    1
    23     6     7    1
    24     7     8    1
    25     8    35    1
    26    35    36    1
    27    36    37   ar
    28    37    38   ar
    29    38    39   ar
    30    39    40   ar
    31    40    41   ar
    32    41    42    1
    33     8     9    1
    34     9    10    1
    35     5    11    1
    36    11    12    2
    37    24    25   ar
    38    25    26   ar
    39    29    30   ar
    40    30    31   ar
    41    31    27   ar
    42    26    21   ar
    43    11     1   am
    44    19    13   ar
    45    10     5    1
    46    41    36   ar
    47    16    20    1
