@<TRIPOS>MOLECULE
*****
 33 35 0 0 0
SMALL
GASTEIGER

@<TRIPOS>ATOM
      1 C         142.5173  139.4541  164.1721 C.3     1  UNL1        0.0862
      2 C         143.4945  140.5872  164.0653 C.2     1  UNL1        0.2257
      3 O         143.7316  141.4865  165.2423 O.2     1  UNL1       -0.2749
      4 N         144.2345  140.8211  162.7817 N.am    1  UNL1       -0.2778
      5 C         143.9974  139.9218  161.6048 C.3     1  UNL1        0.1148
      6 C         145.2116  141.9542  162.6750 C.3     1  UNL1        0.0941
      7 C         144.8048  143.2352  162.0090 C.3     1  UNL1        0.0345
      8 C         144.0806  144.2902  162.7916 C.3     1  UNL1        0.1255
      9 C         142.6035  144.1707  163.0234 C.2     1  UNL1        0.3513
     10 N         141.6587  143.2938  162.2563 N.2     1  UNL1       -0.0350
     11 C         140.2830  143.4882  162.8219 C.2     1  UNL1        0.2317
     12 C         138.9565  142.8862  162.4643 C.2     1  UNL1        0.0498
     13 C         137.7246  143.2812  163.2235 C.2     1  UNL1       -0.0002
     14 C         137.8192  144.2782  164.3402 C.2     1  UNL1       -0.0172
     15 C         139.1457  144.8803  164.6977 C.3     1  UNL1        0.1037
     16 C         140.3776  144.4853  163.9386 C.2     1  UNL1        0.2174
     17 N         141.8117  144.9070  164.0631 N.2     1  UNL1       -0.0389
     18 C         141.8434  139.1657  165.4807 C.3     1  UNL1        0.0242
     19 C         140.3460  139.1424  165.5641 C.3     1  UNL1        0.1088
     20 C         140.3870  140.2244  166.6021 C.ar    1  UNL1       -0.0127
     21 C         140.2780  139.8732  168.0564 C.ar    1  UNL1       -0.0033
     22 C         140.3190  140.9552  169.0944 C.ar    1  UNL1        0.0064
     23 C         140.4690  142.3885  168.6782 C.ar    1  UNL1        0.0345
     24 BR        140.5100  143.4705  169.7163 Br      1  UNL1       -0.0490
     25 C         140.5779  142.7398  167.2240 C.ar    1  UNL1        0.0064
     26 C         140.5369  141.6577  166.1859 C.ar    1  UNL1       -0.0033
     27 C         138.8484  139.1192  165.6475 C.3     1  UNL1        0.0139
     28 C         138.0483  140.2571  165.0862 C.3     1  UNL1        0.0009
     29 C         138.1510  137.9582  166.2921 C.3     1  UNL1        0.0009
     30 C         140.3050  138.0604  164.5261 C.2     1  UNL1        0.3199
     31 O         141.0306  136.7686  164.7601 O.2     1  UNL1       -0.2498
     32 C         140.1746  137.9512  161.9335 C.3     1  UNL1        0.2556
     33 O         139.5383  138.2701  163.2539 O.3     1  UNL1       -0.4442
@<TRIPOS>BOND
     1    32    33    1
     2    33    30    1
     3    30    31    2
     4    30    19    1
     5    19    18    1
     6    18     1    1
     7     1     2    1
     8     2     3    2
     9     2     4   am
    10     4     5    1
    11     4     6    1
    12     6     7    1
    13     7     8    1
    14     8     9    1
    15     9    10    2
    16    10    11    1
    17    11    12    2
    18    12    13    1
    19    13    14    2
    20    14    15    1
    21    15    16    1
    22    16    17    2
    23    19    20    1
    24    20    21   ar
    25    21    22   ar
    26    22    23   ar
    27    23    24    1
    28    23    25   ar
    29    25    26   ar
    30    19    27    1
    31    27    28    1
    32    27    29    1
    33    17     9    1
    34    26    20   ar
    35    16    11    1
@<TRIPOS>MOLECULE
*****
 33 35 0 0 0
SMALL
GASTEIGER

@<TRIPOS>ATOM
      1 C         139.2451  139.8822  166.1836 C.3     1  UNL1        0.0862
      2 C         138.8742  138.9687  165.0531 C.2     1  UNL1        0.2257
      3 O         138.6743  137.5040  165.3071 O.2     1  UNL1       -0.2749
      4 N         138.7033  139.5200  163.6686 N.am    1  UNL1       -0.2778
      5 C         138.9033  140.9848  163.4145 C.3     1  UNL1        0.1148
      6 C         138.3325  138.6065  162.5380 C.3     1  UNL1        0.0941
      7 C         139.4024  138.0221  161.6642 C.3     1  UNL1        0.0345
      8 C         140.6878  137.5430  162.2710 C.3     1  UNL1        0.1255
      9 C         141.8211  138.5028  162.4822 C.2     1  UNL1        0.3513
     10 N         142.1513  139.6816  161.6154 N.2     1  UNL1       -0.0350
     11 C         143.3574  140.3596  162.1948 C.2     1  UNL1        0.2317
     12 C         144.1311  141.5707  161.7653 C.2     1  UNL1        0.0498
     13 C         145.3201  142.0220  162.5606 C.2     1  UNL1       -0.0002
     14 C         145.7353  141.2622  163.7855 C.2     1  UNL1       -0.0172
     15 C         144.9615  140.0511  164.2150 C.3     1  UNL1        0.1037
     16 C         143.7726  139.5998  163.4197 C.2     1  UNL1        0.2174
     17 N         142.8231  138.4523  163.5973 N.2     1  UNL1       -0.0389
     18 C         140.6867  140.0743  166.5506 C.3     1  UNL1        0.0242
     19 C         141.0729  141.1252  167.5488 C.3     1  UNL1        0.1088
     20 C         141.0987  142.1531  166.4566 C.ar    1  UNL1       -0.0127
     21 C         142.2716  142.2276  165.5244 C.ar    1  UNL1       -0.0033
     22 C         142.2974  143.2554  164.4322 C.ar    1  UNL1        0.0064
     23 C         141.1504  144.2088  164.2722 C.ar    1  UNL1        0.0345
     24 BR        141.1763  145.2366  163.1800 Br      1  UNL1       -0.0490
     25 C         139.9776  144.1343  165.2044 C.ar    1  UNL1        0.0064
     26 C         139.9517  143.1064  166.2966 C.ar    1  UNL1       -0.0033
     27 C         141.4591  142.1763  168.5470 C.3     1  UNL1        0.0139
     28 C         140.3971  142.9602  169.2594 C.3     1  UNL1        0.0009
     29 C         142.9072  142.4433  168.8326 C.3     1  UNL1        0.0009
     30 C         141.0471  140.0974  168.6409 C.2     1  UNL1        0.3199
     31 O         139.8126  139.9193  169.4743 O.2     1  UNL1       -0.2498
     32 C         142.6942  138.9764  170.3085 C.3     1  UNL1        0.2556
     33 O         142.2558  139.2476  168.8999 O.3     1  UNL1       -0.4442
@<TRIPOS>BOND
     1    32    33    1
     2    33    30    1
     3    30    31    2
     4    30    19    1
     5    19    18    1
     6    18     1    1
     7     1     2    1
     8     2     3    2
     9     2     4   am
    10     4     5    1
    11     4     6    1
    12     6     7    1
    13     7     8    1
    14     8     9    1
    15     9    10    2
    16    10    11    1
    17    11    12    2
    18    12    13    1
    19    13    14    2
    20    14    15    1
    21    15    16    1
    22    16    17    2
    23    19    20    1
    24    20    21   ar
    25    21    22   ar
    26    22    23   ar
    27    23    24    1
    28    23    25   ar
    29    25    26   ar
    30    19    27    1
    31    27    28    1
    32    27    29    1
    33    17     9    1
    34    26    20   ar
    35    16    11    1
@<TRIPOS>MOLECULE
*****
 33 35 0 0 0
SMALL
GASTEIGER

@<TRIPOS>ATOM
      1 C         141.5603  138.8661  165.8473 C.3     1  UNL1        0.0862
      2 C         141.2731  138.6787  164.3870 C.2     1  UNL1        0.2257
      3 O         142.2938  139.0809  163.3642 O.2     1  UNL1       -0.2749
      4 N         139.9651  138.0890  163.9496 N.am    1  UNL1       -0.2778
      5 C         138.9443  137.6867  164.9724 C.3     1  UNL1        0.1148
      6 C         139.6778  137.9016  162.4893 C.3     1  UNL1        0.0941
      7 C         138.2593  137.8607  162.0032 C.3     1  UNL1        0.0345
      8 C         137.6366  139.0861  161.4027 C.3     1  UNL1        0.1255
      9 C         137.8922  140.4327  162.0123 C.2     1  UNL1        0.3513
     10 N         138.4296  141.6366  161.2970 N.2     1  UNL1       -0.0350
     11 C         138.5248  142.7597  162.2867 C.2     1  UNL1        0.2317
     12 C         138.9854  144.1807  162.1510 C.2     1  UNL1        0.0498
     13 C         138.9673  145.0919  163.3424 C.2     1  UNL1       -0.0002
     14 C         138.4886  144.5821  164.6694 C.2     1  UNL1       -0.0172
     15 C         138.0280  143.1611  164.8050 C.3     1  UNL1        0.1037
     16 C         138.0460  142.2499  163.6137 C.2     1  UNL1        0.2174
     17 N         137.6551  140.8117  163.4441 N.2     1  UNL1       -0.0389
     18 C         142.6026  139.8514  166.2862 C.3     1  UNL1        0.0242
     19 C         142.2386  140.9564  167.2329 C.3     1  UNL1        0.1088
     20 C         142.6054  141.9705  166.1903 C.ar    1  UNL1       -0.0127
     21 C         141.6456  142.2876  165.0820 C.ar    1  UNL1       -0.0033
     22 C         142.0124  143.3017  164.0394 C.ar    1  UNL1        0.0064
     23 C         143.3390  143.9987  164.1050 C.ar    1  UNL1        0.0345
     24 BR        143.7058  145.0128  163.0623 Br      1  UNL1       -0.0490
     25 C         144.2988  143.6816  165.2133 C.ar    1  UNL1        0.0064
     26 C         143.9320  142.6675  166.2560 C.ar    1  UNL1       -0.0033
     27 C         141.8745  142.0616  168.1797 C.3     1  UNL1        0.0139
     28 C         140.6026  142.8314  167.9803 C.3     1  UNL1        0.0009
     29 C         142.7823  142.3969  169.3257 C.3     1  UNL1        0.0009
     30 C         141.8718  139.9424  168.2755 C.2     1  UNL1        0.3199
     31 O         140.4526  139.8329  168.7488 O.2     1  UNL1       -0.2498
     32 C         142.7575  138.4670  170.2221 C.3     1  UNL1        0.2556
     33 O         142.9241  139.0377  168.8449 O.3     1  UNL1       -0.4442
@<TRIPOS>BOND
     1    32    33    1
     2    33    30    1
     3    30    31    2
     4    30    19    1
     5    19    18    1
     6    18     1    1
     7     1     2    1
     8     2     3    2
     9     2     4   am
    10     4     5    1
    11     4     6    1
    12     6     7    1
    13     7     8    1
    14     8     9    1
    15     9    10    2
    16    10    11    1
    17    11    12    2
    18    12    13    1
    19    13    14    2
    20    14    15    1
    21    15    16    1
    22    16    17    2
    23    19    20    1
    24    20    21   ar
    25    21    22   ar
    26    22    23   ar
    27    23    24    1
    28    23    25   ar
    29    25    26   ar
    30    19    27    1
    31    27    28    1
    32    27    29    1
    33    17     9    1
    34    26    20   ar
    35    16    11    1
@<TRIPOS>MOLECULE
*****
 33 35 0 0 0
SMALL
GASTEIGER

@<TRIPOS>ATOM
      1 C         142.2542  142.0628  164.2770 C.3     1  UNL1        0.0862
      2 C         141.2667  143.0966  164.7310 C.2     1  UNL1        0.2257
      3 O         140.8938  143.1920  166.1807 O.2     1  UNL1       -0.2749
      4 N         140.6522  144.0351  163.7352 N.am    1  UNL1       -0.2778
      5 C         141.0251  143.9397  162.2854 C.3     1  UNL1        0.1148
      6 C         139.6646  145.0689  164.1892 C.3     1  UNL1        0.0941
      7 C         138.4485  144.6553  164.9637 C.3     1  UNL1        0.0345
      8 C         137.3528  143.8874  164.2857 C.3     1  UNL1        0.1255
      9 C         137.6074  142.4934  163.7939 C.2     1  UNL1        0.3513
     10 N         137.3947  141.9999  162.3935 N.2     1  UNL1       -0.0350
     11 C         137.7753  140.5496  162.3502 C.2     1  UNL1        0.2317
     12 C         137.7719  139.5438  161.2374 C.2     1  UNL1        0.0498
     13 C         138.2163  138.1351  161.4983 C.2     1  UNL1       -0.0002
     14 C         138.6642  137.7323  162.8721 C.2     1  UNL1       -0.0172
     15 C         138.6676  138.7381  163.9848 C.3     1  UNL1        0.1037
     16 C         138.2232  140.1467  163.7239 C.2     1  UNL1        0.2174
     17 N         138.1194  141.3480  164.6161 N.2     1  UNL1       -0.0389
     18 C         143.1618  141.4040  165.2732 C.3     1  UNL1        0.0242
     19 C         143.1037  139.9186  165.4730 C.3     1  UNL1        0.1088
     20 C         142.1832  140.1118  166.6414 C.ar    1  UNL1       -0.0127
     21 C         142.7098  140.6821  167.9249 C.ar    1  UNL1       -0.0033
     22 C         141.7893  140.8753  169.0933 C.ar    1  UNL1        0.0064
     23 C         140.3420  140.4982  168.9783 C.ar    1  UNL1        0.0345
     24 BR        139.4214  140.6914  170.1468 Br      1  UNL1       -0.0490
     25 C         139.8153  139.9278  167.6948 C.ar    1  UNL1        0.0064
     26 C         140.7359  139.7346  166.5264 C.ar    1  UNL1       -0.0033
     27 C         143.0456  138.4330  165.6729 C.3     1  UNL1        0.0139
     28 C         142.0412  137.6135  164.9184 C.3     1  UNL1        0.0009
     29 C         143.9920  137.7671  166.6273 C.3     1  UNL1        0.0009
     30 C         144.0243  139.7254  164.3046 C.2     1  UNL1        0.3199
     31 O         145.4788  140.0693  164.4309 O.2     1  UNL1       -0.2498
     32 C         144.1642  139.5405  161.7169 C.3     1  UNL1        0.2556
     33 O         143.4903  139.1883  163.0098 O.3     1  UNL1       -0.4442
@<TRIPOS>BOND
     1    32    33    1
     2    33    30    1
     3    30    31    2
     4    30    19    1
     5    19    18    1
     6    18     1    1
     7     1     2    1
     8     2     3    2
     9     2     4   am
    10     4     5    1
    11     4     6    1
    12     6     7    1
    13     7     8    1
    14     8     9    1
    15     9    10    2
    16    10    11    1
    17    11    12    2
    18    12    13    1
    19    13    14    2
    20    14    15    1
    21    15    16    1
    22    16    17    2
    23    19    20    1
    24    20    21   ar
    25    21    22   ar
    26    22    23   ar
    27    23    24    1
    28    23    25   ar
    29    25    26   ar
    30    19    27    1
    31    27    28    1
    32    27    29    1
    33    17     9    1
    34    26    20   ar
    35    16    11    1
@<TRIPOS>MOLECULE
*****
 33 35 0 0 0
SMALL
GASTEIGER

@<TRIPOS>ATOM
      1 C         139.1518  141.8216  164.4025 C.3     1  UNL1        0.0862
      2 C         139.3037  143.2785  164.0792 C.2     1  UNL1        0.2257
      3 O         139.9080  144.2112  165.0866 O.2     1  UNL1       -0.2749
      4 N         138.8513  143.8026  162.7486 N.am    1  UNL1       -0.2778
      5 C         138.2469  142.8699  161.7412 C.3     1  UNL1        0.1148
      6 C         139.0031  145.2595  162.4253 C.3     1  UNL1        0.0941
      7 C         140.3425  145.8031  162.0245 C.3     1  UNL1        0.0345
      8 C         141.2503  144.9906  161.1495 C.3     1  UNL1        0.1255
      9 C         142.1584  143.9642  161.7593 C.2     1  UNL1        0.3513
     10 N         143.2881  144.2382  162.7073 N.2     1  UNL1       -0.0350
     11 C         143.9241  142.9269  163.0619 C.2     1  UNL1        0.2317
     12 C         145.0788  142.5802  163.9544 C.2     1  UNL1        0.0498
     13 C         145.4970  141.1490  164.1180 C.2     1  UNL1       -0.0002
     14 C         144.7604  140.0645  163.3891 C.2     1  UNL1       -0.0172
     15 C         143.6057  140.4111  162.4966 C.3     1  UNL1        0.1037
     16 C         143.1876  141.8423  162.3331 C.2     1  UNL1        0.2174
     17 N         142.0964  142.4834  161.5280 N.2     1  UNL1       -0.0389
     18 C         140.3449  140.9140  164.3527 C.3     1  UNL1        0.0242
     19 C         140.1706  139.4354  164.5353 C.3     1  UNL1        0.1088
     20 C         140.7457  139.5382  165.9168 C.ar    1  UNL1       -0.0127
     21 C         139.8539  139.8634  167.0783 C.ar    1  UNL1       -0.0033
     22 C         140.4290  139.9662  168.4598 C.ar    1  UNL1        0.0064
     23 C         141.8960  139.7438  168.6799 C.ar    1  UNL1        0.0345
     24 BR        142.4711  139.8466  170.0615 Br      1  UNL1       -0.0490
     25 C         142.7879  139.4186  167.5186 C.ar    1  UNL1        0.0064
     26 C         142.2127  139.3158  166.1370 C.ar    1  UNL1       -0.0033
     27 C         139.9963  137.9567  164.7180 C.3     1  UNL1        0.0139
     28 C         138.7956  137.4272  165.4447 C.3     1  UNL1        0.0009
     29 C         141.0225  137.0077  164.1739 C.3     1  UNL1        0.0009
     30 C         139.5954  139.3326  163.1538 C.2     1  UNL1        0.3199
     31 O         140.4779  139.5317  161.9573 O.2     1  UNL1       -0.2498
     32 C         137.6627  138.3704  161.7086 C.3     1  UNL1        0.2556
     33 O         138.1378  139.0307  162.9688 O.3     1  UNL1       -0.4442
@<TRIPOS>BOND
     1    32    33    1
     2    33    30    1
     3    30    31    2
     4    30    19    1
     5    19    18    1
     6    18     1    1
     7     1     2    1
     8     2     3    2
     9     2     4   am
    10     4     5    1
    11     4     6    1
    12     6     7    1
    13     7     8    1
    14     8     9    1
    15     9    10    2
    16    10    11    1
    17    11    12    2
    18    12    13    1
    19    13    14    2
    20    14    15    1
    21    15    16    1
    22    16    17    2
    23    19    20    1
    24    20    21   ar
    25    21    22   ar
    26    22    23   ar
    27    23    24    1
    28    23    25   ar
    29    25    26   ar
    30    19    27    1
    31    27    28    1
    32    27    29    1
    33    17     9    1
    34    26    20   ar
    35    16    11    1
@<TRIPOS>MOLECULE
*****
 33 35 0 0 0
SMALL
GASTEIGER

@<TRIPOS>ATOM
      1 C         143.8114  139.4672  165.2082 C.3     1  UNL1        0.0862
      2 C         143.8446  139.6290  163.7172 C.2     1  UNL1        0.2257
      3 O         143.3066  138.5435  162.8329 O.2     1  UNL1       -0.2749
      4 N         144.4158  140.8763  163.1108 N.am    1  UNL1       -0.2778
      5 C         144.9539  141.9618  163.9951 C.3     1  UNL1        0.1148
      6 C         144.4490  141.0381  161.6198 C.3     1  UNL1        0.0941
      7 C         144.5807  142.4052  161.0166 C.3     1  UNL1        0.0345
      8 C         143.3832  143.0769  160.4126 C.3     1  UNL1        0.1255
      9 C         142.1843  143.3784  161.2622 C.2     1  UNL1        0.3513
     10 N         142.2020  144.0346  162.6110 N.2     1  UNL1       -0.0350
     11 C         140.7859  144.1384  163.0946 C.2     1  UNL1        0.2317
     12 C         140.1941  144.6955  164.3553 C.2     1  UNL1        0.0498
     13 C         138.7094  144.6605  164.5661 C.2     1  UNL1       -0.0002
     14 C         137.8165  144.0685  163.5162 C.2     1  UNL1       -0.0172
     15 C         138.4083  143.5114  162.2556 C.3     1  UNL1        0.1037
     16 C         139.8930  143.5463  162.0447 C.2     1  UNL1        0.2174
     17 N         140.7573  143.0767  160.9123 N.2     1  UNL1       -0.0389
     18 C         142.6288  138.8203  165.8662 C.3     1  UNL1        0.0242
     19 C         141.5504  139.6689  166.4718 C.3     1  UNL1        0.1088
     20 C         140.6526  139.3557  165.3117 C.ar    1  UNL1       -0.0127
     21 C         140.0331  137.9951  165.1888 C.ar    1  UNL1       -0.0033
     22 C         139.1352  137.6819  164.0287 C.ar    1  UNL1        0.0064
     23 C         138.8568  138.7292  162.9916 C.ar    1  UNL1        0.0345
     24 BR        137.9589  138.4159  161.8316 Br      1  UNL1       -0.0490
     25 C         139.4762  140.0897  163.1146 C.ar    1  UNL1        0.0064
     26 C         140.3741  140.4030  164.2746 C.ar    1  UNL1       -0.0033
     27 C         140.4719  140.5176  167.0773 C.3     1  UNL1        0.0139
     28 C         140.3489  141.9620  166.6918 C.3     1  UNL1        0.0009
     29 C         139.5164  139.9219  168.0683 C.3     1  UNL1        0.0009
     30 C         142.4483  139.9822  167.6318 C.2     1  UNL1        0.3199
     31 O         142.9184  141.3885  167.8579 O.2     1  UNL1       -0.2498
     32 C         142.5200  138.9638  170.0209 C.3     1  UNL1        0.2556
     33 O         142.8760  138.8890  168.5657 O.3     1  UNL1       -0.4442
@<TRIPOS>BOND
     1    32    33    1
     2    33    30    1
     3    30    31    2
     4    30    19    1
     5    19    18    1
     6    18     1    1
     7     1     2    1
     8     2     3    2
     9     2     4   am
    10     4     5    1
    11     4     6    1
    12     6     7    1
    13     7     8    1
    14     8     9    1
    15     9    10    2
    16    10    11    1
    17    11    12    2
    18    12    13    1
    19    13    14    2
    20    14    15    1
    21    15    16    1
    22    16    17    2
    23    19    20    1
    24    20    21   ar
    25    21    22   ar
    26    22    23   ar
    27    23    24    1
    28    23    25   ar
    29    25    26   ar
    30    19    27    1
    31    27    28    1
    32    27    29    1
    33    17     9    1
    34    26    20   ar
    35    16    11    1
@<TRIPOS>MOLECULE
*****
 33 35 0 0 0
SMALL
GASTEIGER

@<TRIPOS>ATOM
      1 C         143.5234  142.3791  165.7649 C.3     1  UNL1        0.0862
      2 C         143.5437  142.8031  164.3262 C.2     1  UNL1        0.2257
      3 O         142.4253  143.6363  163.7740 O.2     1  UNL1       -0.2749
      4 N         144.6824  142.3940  163.4397 N.am    1  UNL1       -0.2778
      5 C         145.8009  141.5608  163.9919 C.3     1  UNL1        0.1148
      6 C         144.7028  142.8180  162.0010 C.3     1  UNL1        0.0941
      7 C         144.1328  141.9173  160.9455 C.3     1  UNL1        0.0345
      8 C         144.1825  140.4287  161.1231 C.3     1  UNL1        0.1255
      9 C         143.0824  139.7243  161.8603 C.2     1  UNL1        0.3513
     10 N         143.1968  139.0814  163.2107 N.2     1  UNL1       -0.0350
     11 C         141.8599  138.4987  163.5616 C.2     1  UNL1        0.2317
     12 C         141.3776  137.7473  164.7668 C.2     1  UNL1        0.0498
     13 C         139.9545  137.2786  164.8385 C.2     1  UNL1       -0.0002
     14 C         139.0137  137.5614  163.7049 C.2     1  UNL1       -0.0172
     15 C         139.4960  138.3129  162.4997 C.3     1  UNL1        0.1037
     16 C         140.9191  138.7815  162.4280 C.2     1  UNL1        0.2174
     17 N         141.6747  139.5389  161.3766 N.2     1  UNL1       -0.0389
     18 C         142.6163  141.2693  166.2069 C.3     1  UNL1        0.0242
     19 C         141.6269  141.5036  167.3097 C.3     1  UNL1        0.1088
     20 C         140.6232  141.9888  166.3062 C.ar    1  UNL1       -0.0127
     21 C         140.0552  141.0388  165.2939 C.ar    1  UNL1       -0.0033
     22 C         139.0515  141.5240  164.2904 C.ar    1  UNL1        0.0064
     23 C         138.6158  142.9593  164.2991 C.ar    1  UNL1        0.0345
     24 BR        137.6120  143.4445  163.2955 Br      1  UNL1       -0.0490
     25 C         139.1838  143.9093  165.3114 C.ar    1  UNL1        0.0064
     26 C         140.1875  143.4241  166.3150 C.ar    1  UNL1       -0.0033
     27 C         140.6375  141.7379  168.4126 C.3     1  UNL1        0.0139
     28 C         140.6492  143.0339  169.1678 C.3     1  UNL1        0.0009
     29 C         139.6364  140.6763  168.7602 C.3     1  UNL1        0.0009
     30 C         142.6306  141.0184  168.3133 C.2     1  UNL1        0.3199
     31 O         143.4402  142.0048  169.1016 O.2     1  UNL1       -0.2498
     32 C         142.6168  138.9540  169.8907 C.3     1  UNL1        0.2556
     33 O         142.8248  139.5466  168.5285 O.3     1  UNL1       -0.4442
@<TRIPOS>BOND
     1    32    33    1
     2    33    30    1
     3    30    31    2
     4    30    19    1
     5    19    18    1
     6    18     1    1
     7     1     2    1
     8     2     3    2
     9     2     4   am
    10     4     5    1
    11     4     6    1
    12     6     7    1
    13     7     8    1
    14     8     9    1
    15     9    10    2
    16    10    11    1
    17    11    12    2
    18    12    13    1
    19    13    14    2
    20    14    15    1
    21    15    16    1
    22    16    17    2
    23    19    20    1
    24    20    21   ar
    25    21    22   ar
    26    22    23   ar
    27    23    24    1
    28    23    25   ar
    29    25    26   ar
    30    19    27    1
    31    27    28    1
    32    27    29    1
    33    17     9    1
    34    26    20   ar
    35    16    11    1
@<TRIPOS>MOLECULE
*****
 33 35 0 0 0
SMALL
GASTEIGER

@<TRIPOS>ATOM
      1 C         140.0077  143.4703  166.2057 C.3     1  UNL1        0.0862
      2 C         139.2629  143.8830  164.9708 C.2     1  UNL1        0.2257
      3 O         137.7650  143.8108  164.9391 O.2     1  UNL1       -0.2749
      4 N         140.0160  144.3678  163.7675 N.am    1  UNL1       -0.2778
      5 C         141.5139  144.4400  163.7992 C.3     1  UNL1        0.1148
      6 C         139.2711  144.7805  162.5326 C.3     1  UNL1        0.0941
      7 C         139.0031  143.7789  161.4486 C.3     1  UNL1        0.0345
      8 C         138.1260  142.5934  161.7230 C.3     1  UNL1        0.1255
      9 C         138.7121  141.3499  162.3232 C.2     1  UNL1        0.3513
     10 N         139.8642  140.5633  161.7720 N.2     1  UNL1       -0.0350
     11 C         140.1130  139.4018  162.6881 C.2     1  UNL1        0.2317
     12 C         141.1197  138.2905  162.6492 C.2     1  UNL1        0.0498
     13 C         141.1280  137.2480  163.7276 C.2     1  UNL1       -0.0002
     14 C         140.1297  137.3169  164.8450 C.2     1  UNL1       -0.0172
     15 C         139.1230  138.4282  164.8839 C.3     1  UNL1        0.1037
     16 C         139.1147  139.4707  163.8055 C.2     1  UNL1        0.2174
     17 N         138.2489  140.6746  163.5800 N.2     1  UNL1       -0.0389
     18 C         140.3563  142.0279  166.4244 C.3     1  UNL1        0.0242
     19 C         141.3847  141.6520  167.4496 C.3     1  UNL1        0.1088
     20 C         142.4439  141.6534  166.3875 C.ar    1  UNL1       -0.0127
     21 C         143.4524  142.7627  166.3355 C.ar    1  UNL1       -0.0033
     22 C         144.5116  142.7642  165.2735 C.ar    1  UNL1        0.0064
     23 C         144.5624  141.6564  164.2634 C.ar    1  UNL1        0.0345
     24 BR        145.6217  141.6579  163.2013 Br      1  UNL1       -0.0490
     25 C         143.5540  140.5471  164.3154 C.ar    1  UNL1        0.0064
     26 C         142.4948  140.5456  165.3775 C.ar    1  UNL1       -0.0033
     27 C         142.4132  141.2760  168.4748 C.3     1  UNL1        0.0139
     28 C         143.1984  142.3445  169.1762 C.3     1  UNL1        0.0009
     29 C         142.6565  139.8318  168.7985 C.3     1  UNL1        0.0009
     30 C         140.3255  141.6505  168.5117 C.2     1  UNL1        0.3199
     31 O         140.1887  142.8238  169.4362 O.2     1  UNL1       -0.2498
     32 C         138.7382  140.1941  169.9641 C.3     1  UNL1        0.2556
     33 O         139.4029  140.4757  168.6493 O.3     1  UNL1       -0.4442
@<TRIPOS>BOND
     1    32    33    1
     2    33    30    1
     3    30    31    2
     4    30    19    1
     5    19    18    1
     6    18     1    1
     7     1     2    1
     8     2     3    2
     9     2     4   am
    10     4     5    1
    11     4     6    1
    12     6     7    1
    13     7     8    1
    14     8     9    1
    15     9    10    2
    16    10    11    1
    17    11    12    2
    18    12    13    1
    19    13    14    2
    20    14    15    1
    21    15    16    1
    22    16    17    2
    23    19    20    1
    24    20    21   ar
    25    21    22   ar
    26    22    23   ar
    27    23    24    1
    28    23    25   ar
    29    25    26   ar
    30    19    27    1
    31    27    28    1
    32    27    29    1
    33    17     9    1
    34    26    20   ar
    35    16    11    1
@<TRIPOS>MOLECULE
*****
 33 35 0 0 0
SMALL
GASTEIGER

@<TRIPOS>ATOM
      1 C         140.1960  142.8356  166.4673 C.3     1  UNL1        0.0862
      2 C         139.8737  142.9302  165.0053 C.2     1  UNL1        0.2257
      3 O         140.4066  141.9021  164.0519 O.2     1  UNL1       -0.2749
      4 N         139.0185  144.0527  164.4970 N.am    1  UNL1       -0.2778
      5 C         138.4856  145.0807  165.4504 C.3     1  UNL1        0.1148
      6 C         138.6962  144.1472  163.0350 C.3     1  UNL1        0.0941
      7 C         139.1764  145.3221  162.2356 C.3     1  UNL1        0.0345
      8 C         140.5855  145.8113  162.3938 C.3     1  UNL1        0.1255
      9 C         141.6927  144.8353  162.6613 C.2     1  UNL1        0.3513
     10 N         142.1715  143.7665  161.7240 N.2     1  UNL1       -0.0350
     11 C         143.2902  143.0274  162.3965 C.2     1  UNL1        0.2317
     12 C         144.1427  141.8762  161.9517 C.2     1  UNL1        0.0498
     13 C         145.2079  141.3370  162.8598 C.2     1  UNL1       -0.0002
     14 C         145.4205  141.9490  164.2127 C.2     1  UNL1       -0.0172
     15 C         144.5680  143.1002  164.6574 C.3     1  UNL1        0.1037
     16 C         143.5028  143.6394  163.7494 C.2     1  UNL1        0.2174
     17 N         142.5155  144.7567  163.9130 N.2     1  UNL1       -0.0389
     18 C         141.5279  142.3055  166.9089 C.3     1  UNL1        0.0242
     19 C         141.5970  141.1981  167.9182 C.3     1  UNL1        0.1088
     20 C         141.4446  140.1878  166.8201 C.ar    1  UNL1       -0.0127
     21 C         142.6094  139.8636  165.9321 C.ar    1  UNL1       -0.0033
     22 C         142.4569  138.8533  164.8340 C.ar    1  UNL1        0.0064
     23 C         141.1398  138.1670  164.6237 C.ar    1  UNL1        0.0345
     24 BR        140.9874  137.1567  163.5255 Br      1  UNL1       -0.0490
     25 C         139.9751  138.4911  165.5116 C.ar    1  UNL1        0.0064
     26 C         140.1275  139.5015  166.6098 C.ar    1  UNL1       -0.0033
     27 C         141.6662  140.0905  168.9275 C.3     1  UNL1        0.0139
     28 C         142.8747  139.2040  168.9865 C.3     1  UNL1        0.0009
     29 C         140.5268  139.8696  169.8778 C.3     1  UNL1        0.0009
     30 C         141.7494  142.2084  169.0164 C.2     1  UNL1        0.3199
     31 O         143.1122  142.7147  169.3859 O.2     1  UNL1       -0.2498
     32 C         140.3750  144.1815  170.0002 C.3     1  UNL1        0.2556
     33 O         140.5390  142.7125  169.7450 O.3     1  UNL1       -0.4442
@<TRIPOS>BOND
     1    32    33    1
     2    33    30    1
     3    30    31    2
     4    30    19    1
     5    19    18    1
     6    18     1    1
     7     1     2    1
     8     2     3    2
     9     2     4   am
    10     4     5    1
    11     4     6    1
    12     6     7    1
    13     7     8    1
    14     8     9    1
    15     9    10    2
    16    10    11    1
    17    11    12    2
    18    12    13    1
    19    13    14    2
    20    14    15    1
    21    15    16    1
    22    16    17    2
    23    19    20    1
    24    20    21   ar
    25    21    22   ar
    26    22    23   ar
    27    23    24    1
    28    23    25   ar
    29    25    26   ar
    30    19    27    1
    31    27    28    1
    32    27    29    1
    33    17     9    1
    34    26    20   ar
    35    16    11    1
