@<TRIPOS>MOLECULE
*****
 36 40 0 0 0
SMALL
GASTEIGER

@<TRIPOS>ATOM
      1 N         139.0284  141.7608  160.4549 N.3     1  UNL1       -0.2690
      2 C         138.5575  140.3690  160.1534 C.3     1  UNL1        0.0724
      3 C         139.4100  139.4510  159.3285 C.3     1  UNL1        0.0175
      4 C         140.7335  139.9249  158.8051 C.3     1  UNL1        0.0060
      5 C         141.2044  141.3167  159.1067 C.3     1  UNL1        0.0175
      6 C         140.3519  142.2347  159.9316 C.3     1  UNL1        0.0724
      7 C         140.2625  138.5330  158.5035 C.3     1  UNL1        0.0217
      8 C         141.1151  137.6150  157.6786 C.3     1  UNL1        0.0937
      9 N         142.4386  138.0889  157.1553 N.am    1  UNL1       -0.2761
     10 C         143.2911  137.1709  156.3304 C.2     1  UNL1        0.2490
     11 O         144.6146  137.6448  155.8070 O.2     1  UNL1       -0.2699
     12 C         142.9095  139.4807  157.4569 C.3     1  UNL1        0.0937
     13 C         142.0569  140.3988  158.2818 C.3     1  UNL1        0.0217
     14 C         142.8202  135.7791  156.0288 C.ar    1  UNL1        0.0536
     15 C         141.9639  135.5214  154.8244 C.ar    1  UNL1        0.0054
     16 C         141.4930  134.1296  154.5229 C.ar    1  UNL1        0.0115
     17 C         141.8783  132.9953  155.4256 C.ar    1  UNL1        0.0577
     18 CL        141.4074  131.6035  155.1241 Cl      1  UNL1       -0.0822
     19 C         142.7346  133.2529  156.6300 C.ar    1  UNL1        0.0115
     20 C         143.2055  134.6448  156.9315 C.ar    1  UNL1        0.0054
     21 C         138.1758  142.6788  161.2799 C.3     1  UNL1        0.0992
     22 C         139.5892  142.2716  164.9659 C.ar    1  UNL1        0.1452
     23 C         139.3570  143.6491  165.5123 C.ar    1  UNL1        0.0375
     24 C         138.7311  144.7032  164.6479 C.ar    1  UNL1        0.0029
     25 C         138.3374  144.3798  163.2371 C.ar    1  UNL1       -0.0027
     26 C         138.5696  143.0022  162.6907 C.ar    1  UNL1       -0.0031
     27 C         139.1955  141.9482  163.5550 C.ar    1  UNL1        0.0346
     28 O         140.2151  141.2176  165.8303 O.3     1  UNL1       -0.4504
     29 C         139.4186  138.8107  165.2624 C.ar    1  UNL1        0.1730
     30 C         139.6984  137.4485  164.7001 C.ar    1  UNL1        0.0401
     31 C         141.0546  137.1310  164.1434 C.ar    1  UNL1        0.0033
     32 C         142.1310  138.1756  164.1490 C.ar    1  UNL1        0.0033
     33 C         141.8512  139.5378  164.7113 C.ar    1  UNL1        0.0406
     34 C         140.4950  139.8553  165.2680 C.ar    1  UNL1        0.1789
     35 C         137.6351  138.5435  167.1326 C.3     1  UNL1        0.2526
     36 O         138.0623  139.1282  165.8190 O.3     1  UNL1       -0.4684
@<TRIPOS>BOND
     1    35    36    1
     2    36    29    1
     3    29    30   ar
     4    30    31   ar
     5    31    32   ar
     6    32    33   ar
     7    33    34   ar
     8    34    28    1
     9    28    22    1
    10    22    23   ar
    11    23    24   ar
    12    24    25   ar
    13    25    26   ar
    14    26    21    1
    15    21     1    1
    16     1     2    1
    17     2     3    1
    18     3     4    1
    19     4     5    1
    20     5     6    1
    21     4     7    1
    22     7     8    1
    23     8     9    1
    24     9    10   am
    25    10    11    2
    26    10    14    1
    27    14    15   ar
    28    15    16   ar
    29    16    17   ar
    30    17    18    1
    31    17    19   ar
    32    19    20   ar
    33     9    12    1
    34    12    13    1
    35    26    27   ar
    36    34    29   ar
    37    27    22   ar
    38     6     1    1
    39    20    14   ar
    40    13     4    1
@<TRIPOS>MOLECULE
*****
 36 40 0 0 0
SMALL
GASTEIGER

@<TRIPOS>ATOM
      1 N         143.3943  139.7024  164.0215 N.3     1  UNL1       -0.2690
      2 C         142.9560  138.3815  163.4620 C.3     1  UNL1        0.0724
      3 C         142.9148  138.1724  161.9773 C.3     1  UNL1        0.0175
      4 C         143.3119  139.2843  161.0520 C.3     1  UNL1        0.0060
      5 C         143.7502  140.6051  161.6115 C.3     1  UNL1        0.0175
      6 C         143.7914  140.8142  163.0963 C.3     1  UNL1        0.0724
      7 C         142.8736  137.9633  160.4924 C.3     1  UNL1        0.0217
      8 C         142.8324  137.7543  159.0077 C.3     1  UNL1        0.0937
      9 N         143.2296  138.8661  158.0824 N.am    1  UNL1       -0.2761
     10 C         143.1884  138.6570  156.5976 C.2     1  UNL1        0.2490
     11 O         143.5855  139.7688  155.6723 O.2     1  UNL1       -0.2699
     12 C         143.6679  140.1870  158.6419 C.3     1  UNL1        0.0937
     13 C         143.7091  140.3961  160.1268 C.3     1  UNL1        0.0217
     14 C         142.7501  137.3361  156.0381 C.ar    1  UNL1        0.0536
     15 C         143.7679  136.2807  155.7217 C.ar    1  UNL1        0.0054
     16 C         143.3296  134.9598  155.1622 C.ar    1  UNL1        0.0115
     17 C         141.8734  134.6943  154.9190 C.ar    1  UNL1        0.0577
     18 CL        141.4351  133.3734  154.3595 Cl      1  UNL1       -0.0822
     19 C         140.8556  135.7497  155.2355 C.ar    1  UNL1        0.0115
     20 C         141.2939  137.0706  155.7950 C.ar    1  UNL1        0.0054
     21 C         143.4355  139.9115  165.5064 C.3     1  UNL1        0.0992
     22 C         139.5661  140.0945  166.3694 C.ar    1  UNL1        0.1452
     23 C         139.6070  140.0388  167.8678 C.ar    1  UNL1        0.0375
     24 C         140.9240  139.9406  168.5790 C.ar    1  UNL1        0.0029
     25 C         142.2001  139.8982  167.7919 C.ar    1  UNL1       -0.0027
     26 C         142.1593  139.9539  166.2935 C.ar    1  UNL1       -0.0031
     27 C         140.8423  140.0520  165.5822 C.ar    1  UNL1        0.0346
     28 O         138.2491  140.1926  165.6581 O.3     1  UNL1       -0.4504
     29 C         137.9706  140.4997  163.0933 C.ar    1  UNL1        0.1730
     30 C         137.8275  141.3978  161.9005 C.ar    1  UNL1        0.0401
     31 C         137.8200  142.8871  162.0796 C.ar    1  UNL1        0.0033
     32 C         137.9555  143.4782  163.4515 C.ar    1  UNL1        0.0033
     33 C         138.0986  142.5800  164.6444 C.ar    1  UNL1        0.0406
     34 C         138.1061  141.0908  164.4653 C.ar    1  UNL1        0.1789
     35 C         139.2675  138.2944  162.6405 C.3     1  UNL1        0.2526
     36 O         137.9781  139.0104  162.9143 O.3     1  UNL1       -0.4684
@<TRIPOS>BOND
     1    35    36    1
     2    36    29    1
     3    29    30   ar
     4    30    31   ar
     5    31    32   ar
     6    32    33   ar
     7    33    34   ar
     8    34    28    1
     9    28    22    1
    10    22    23   ar
    11    23    24   ar
    12    24    25   ar
    13    25    26   ar
    14    26    21    1
    15    21     1    1
    16     1     2    1
    17     2     3    1
    18     3     4    1
    19     4     5    1
    20     5     6    1
    21     4     7    1
    22     7     8    1
    23     8     9    1
    24     9    10   am
    25    10    11    2
    26    10    14    1
    27    14    15   ar
    28    15    16   ar
    29    16    17   ar
    30    17    18    1
    31    17    19   ar
    32    19    20   ar
    33     9    12    1
    34    12    13    1
    35    26    27   ar
    36    34    29   ar
    37    27    22   ar
    38     6     1    1
    39    20    14   ar
    40    13     4    1
@<TRIPOS>MOLECULE
*****
 36 40 0 0 0
SMALL
GASTEIGER

@<TRIPOS>ATOM
      1 N         139.6916  138.7927  160.2363 N.3     1  UNL1       -0.2690
      2 C         140.7930  139.5611  160.9044 C.3     1  UNL1        0.0724
      3 C         140.7672  139.7709  162.3894 C.3     1  UNL1        0.0175
      4 C         139.6400  139.2124  163.2063 C.3     1  UNL1        0.0060
      5 C         138.5386  138.4439  162.5382 C.3     1  UNL1        0.0175
      6 C         138.5644  138.2341  161.0532 C.3     1  UNL1        0.0724
      7 C         140.7414  139.9808  163.8745 C.3     1  UNL1        0.0217
      8 C         140.7156  140.1907  165.3595 C.3     1  UNL1        0.0937
      9 N         139.5884  139.6321  166.1764 N.am    1  UNL1       -0.2761
     10 C         139.5626  139.8420  167.6614 C.2     1  UNL1        0.2490
     11 O         138.4354  139.2834  168.4784 O.2     1  UNL1       -0.2699
     12 C         138.4870  138.8637  165.5083 C.3     1  UNL1        0.0937
     13 C         138.5128  138.6538  164.0232 C.3     1  UNL1        0.0217
     14 C         140.6640  140.6104  168.3295 C.ar    1  UNL1        0.0536
     15 C         141.9036  139.9002  168.7869 C.ar    1  UNL1        0.0054
     16 C         143.0050  140.6686  169.4549 C.ar    1  UNL1        0.0115
     17 C         142.8669  142.1473  169.6657 C.ar    1  UNL1        0.0577
     18 CL        143.9683  142.9158  170.3338 Cl      1  UNL1       -0.0822
     19 C         141.6274  142.8576  169.2084 C.ar    1  UNL1        0.0115
     20 C         140.5259  142.0891  168.5403 C.ar    1  UNL1        0.0054
     21 C         139.7174  138.5828  158.7513 C.3     1  UNL1        0.0992
     22 C         143.0456  137.7499  156.7563 C.ar    1  UNL1        0.1452
     23 C         143.5561  139.1305  156.4678 C.ar    1  UNL1        0.0375
     24 C         142.7871  140.3285  156.9404 C.ar    1  UNL1        0.0029
     25 C         141.5075  140.1460  157.7015 C.ar    1  UNL1       -0.0027
     26 C         140.9970  138.7653  157.9901 C.ar    1  UNL1       -0.0031
     27 C         141.7660  137.5673  157.5175 C.ar    1  UNL1        0.0346
     28 O         143.8146  136.5519  156.2837 O.3     1  UNL1       -0.4504
     29 C         142.8634  134.1349  156.3429 C.ar    1  UNL1        0.1730
     30 C         142.1479  133.0036  155.6661 C.ar    1  UNL1        0.0401
     31 C         141.6679  133.1578  154.2533 C.ar    1  UNL1        0.0033
     32 C         141.9035  134.4434  153.5173 C.ar    1  UNL1        0.0033
     33 C         142.6191  135.5748  154.1942 C.ar    1  UNL1        0.0406
     34 C         143.0990  135.4205  155.6069 C.ar    1  UNL1        0.1789
     35 C         144.5916  133.1999  158.0427 C.3     1  UNL1        0.2526
     36 O         143.3434  133.9807  157.7557 O.3     1  UNL1       -0.4684
@<TRIPOS>BOND
     1    35    36    1
     2    36    29    1
     3    29    30   ar
     4    30    31   ar
     5    31    32   ar
     6    32    33   ar
     7    33    34   ar
     8    34    28    1
     9    28    22    1
    10    22    23   ar
    11    23    24   ar
    12    24    25   ar
    13    25    26   ar
    14    26    21    1
    15    21     1    1
    16     1     2    1
    17     2     3    1
    18     3     4    1
    19     4     5    1
    20     5     6    1
    21     4     7    1
    22     7     8    1
    23     8     9    1
    24     9    10   am
    25    10    11    2
    26    10    14    1
    27    14    15   ar
    28    15    16   ar
    29    16    17   ar
    30    17    18    1
    31    17    19   ar
    32    19    20   ar
    33     9    12    1
    34    12    13    1
    35    26    27   ar
    36    34    29   ar
    37    27    22   ar
    38     6     1    1
    39    20    14   ar
    40    13     4    1
@<TRIPOS>MOLECULE
*****
 36 40 0 0 0
SMALL
GASTEIGER

@<TRIPOS>ATOM
      1 N         139.0497  141.7799  160.3948 N.3     1  UNL1       -0.2690
      2 C         138.6018  140.3716  160.1378 C.3     1  UNL1        0.0724
      3 C         139.4515  139.4537  159.3100 C.3     1  UNL1        0.0175
      4 C         140.7490  139.9440  158.7391 C.3     1  UNL1        0.0060
      5 C         141.1969  141.3523  158.9960 C.3     1  UNL1        0.0175
      6 C         140.3472  142.2703  159.8239 C.3     1  UNL1        0.0724
      7 C         140.3011  138.5356  158.4821 C.3     1  UNL1        0.0217
      8 C         141.1508  137.6177  157.6542 C.3     1  UNL1        0.0937
      9 N         142.4483  138.1080  157.0833 N.am    1  UNL1       -0.2761
     10 C         143.2980  137.1900  156.2554 C.2     1  UNL1        0.2490
     11 O         144.5956  137.6803  155.6845 O.2     1  UNL1       -0.2699
     12 C         142.8962  139.5163  157.3402 C.3     1  UNL1        0.0937
     13 C         142.0466  140.4343  158.1681 C.3     1  UNL1        0.0217
     14 C         142.8501  135.7817  155.9985 C.ar    1  UNL1        0.0536
     15 C         143.2751  134.6791  156.9225 C.ar    1  UNL1        0.0054
     16 C         142.8272  133.2708  156.6655 C.ar    1  UNL1        0.0115
     17 C         141.9543  132.9650  155.4846 C.ar    1  UNL1        0.0577
     18 CL        141.5064  131.5567  155.2276 Cl      1  UNL1       -0.0822
     19 C         141.5293  134.0676  154.5606 C.ar    1  UNL1        0.0115
     20 C         141.9773  135.4760  154.8176 C.ar    1  UNL1        0.0054
     21 C         138.2000  142.6980  161.2227 C.3     1  UNL1        0.0992
     22 C         140.0587  142.5460  164.7259 C.ar    1  UNL1        0.1452
     23 C         139.4172  143.7002  165.4374 C.ar    1  UNL1        0.0375
     24 C         138.3700  144.5203  164.7440 C.ar    1  UNL1        0.0029
     25 C         137.9643  144.1863  163.3392 C.ar    1  UNL1       -0.0027
     26 C         138.6058  143.0320  162.6276 C.ar    1  UNL1       -0.0031
     27 C         139.6529  142.2119  163.3209 C.ar    1  UNL1        0.0346
     28 O         141.1058  141.7258  165.4192 O.3     1  UNL1       -0.4504
     29 C         143.0896  140.6462  164.1350 C.ar    1  UNL1        0.1730
     30 C         144.5133  140.6950  163.6651 C.ar    1  UNL1        0.0401
     31 C         145.3769  141.8722  164.0094 C.ar    1  UNL1        0.0033
     32 C         144.8168  143.0006  164.8237 C.ar    1  UNL1        0.0033
     33 C         143.3931  142.9518  165.2937 C.ar    1  UNL1        0.0406
     34 C         142.5295  141.7746  164.9493 C.ar    1  UNL1        0.1789
     35 C         141.7950  139.2447  162.3716 C.3     1  UNL1        0.2526
     36 O         142.2261  139.4691  163.7907 O.3     1  UNL1       -0.4684
@<TRIPOS>BOND
     1    35    36    1
     2    36    29    1
     3    29    30   ar
     4    30    31   ar
     5    31    32   ar
     6    32    33   ar
     7    33    34   ar
     8    34    28    1
     9    28    22    1
    10    22    23   ar
    11    23    24   ar
    12    24    25   ar
    13    25    26   ar
    14    26    21    1
    15    21     1    1
    16     1     2    1
    17     2     3    1
    18     3     4    1
    19     4     5    1
    20     5     6    1
    21     4     7    1
    22     7     8    1
    23     8     9    1
    24     9    10   am
    25    10    11    2
    26    10    14    1
    27    14    15   ar
    28    15    16   ar
    29    16    17   ar
    30    17    18    1
    31    17    19   ar
    32    19    20   ar
    33     9    12    1
    34    12    13    1
    35    26    27   ar
    36    34    29   ar
    37    27    22   ar
    38     6     1    1
    39    20    14   ar
    40    13     4    1
@<TRIPOS>MOLECULE
*****
 36 40 0 0 0
SMALL
GASTEIGER

@<TRIPOS>ATOM
      1 N         138.9981  141.6629  160.2758 N.3     1  UNL1       -0.2690
      2 C         138.5456  140.2745  159.9334 C.3     1  UNL1        0.0724
      3 C         139.4339  139.3735  159.1276 C.3     1  UNL1        0.0175
      4 C         140.7746  139.8611  158.6643 C.3     1  UNL1        0.0060
      5 C         141.2271  141.2495  159.0068 C.3     1  UNL1        0.0175
      6 C         140.3389  142.1505  159.8125 C.3     1  UNL1        0.0724
      7 C         140.3221  138.4725  158.3218 C.3     1  UNL1        0.0217
      8 C         141.2104  137.5716  157.5161 C.3     1  UNL1        0.0937
      9 N         142.5511  138.0591  157.0528 N.am    1  UNL1       -0.2761
     10 C         143.4394  137.1581  156.2470 C.2     1  UNL1        0.2490
     11 O         144.7801  137.6456  155.7837 O.2     1  UNL1       -0.2699
     12 C         143.0036  139.4476  157.3952 C.3     1  UNL1        0.0937
     13 C         142.1154  140.3486  158.2010 C.3     1  UNL1        0.0217
     14 C         142.9869  135.7696  155.9045 C.ar    1  UNL1        0.0536
     15 C         142.3006  135.5055  154.5971 C.ar    1  UNL1        0.0054
     16 C         141.8481  134.1170  154.2547 C.ar    1  UNL1        0.0115
     17 C         142.0818  132.9926  155.2197 C.ar    1  UNL1        0.0577
     18 CL        141.6293  131.6041  154.8772 Cl      1  UNL1       -0.0822
     19 C         142.7680  133.2567  156.5271 C.ar    1  UNL1        0.0115
     20 C         143.2206  134.6453  156.8695 C.ar    1  UNL1        0.0054
     21 C         138.1099  142.5640  161.0816 C.3     1  UNL1        0.0992
     22 C         139.2227  142.2916  164.8813 C.ar    1  UNL1        0.1452
     23 C         139.2948  143.7412  165.2602 C.ar    1  UNL1        0.0375
     24 C         138.9720  144.7983  164.2462 C.ar    1  UNL1        0.0029
     25 C         138.5770  144.4060  162.8534 C.ar    1  UNL1       -0.0027
     26 C         138.5049  142.9563  162.4745 C.ar    1  UNL1       -0.0031
     27 C         138.8277  141.8992  163.4884 C.ar    1  UNL1        0.0346
     28 O         139.5456  141.2344  165.8953 O.3     1  UNL1       -0.4504
     29 C         141.5033  139.6686  165.2130 C.ar    1  UNL1        0.1730
     30 C         141.9961  138.3248  164.7644 C.ar    1  UNL1        0.0401
     31 C         141.0239  137.2028  164.5496 C.ar    1  UNL1        0.0033
     32 C         139.5590  137.4247  164.7833 C.ar    1  UNL1        0.0033
     33 C         139.0662  138.7686  165.2319 C.ar    1  UNL1        0.0406
     34 C         140.0384  139.8905  165.4467 C.ar    1  UNL1        0.1789
     35 C         142.7962  141.7306  164.3038 C.3     1  UNL1        0.2526
     36 O         142.4755  140.7906  165.4278 O.3     1  UNL1       -0.4684
@<TRIPOS>BOND
     1    35    36    1
     2    36    29    1
     3    29    30   ar
     4    30    31   ar
     5    31    32   ar
     6    32    33   ar
     7    33    34   ar
     8    34    28    1
     9    28    22    1
    10    22    23   ar
    11    23    24   ar
    12    24    25   ar
    13    25    26   ar
    14    26    21    1
    15    21     1    1
    16     1     2    1
    17     2     3    1
    18     3     4    1
    19     4     5    1
    20     5     6    1
    21     4     7    1
    22     7     8    1
    23     8     9    1
    24     9    10   am
    25    10    11    2
    26    10    14    1
    27    14    15   ar
    28    15    16   ar
    29    16    17   ar
    30    17    18    1
    31    17    19   ar
    32    19    20   ar
    33     9    12    1
    34    12    13    1
    35    26    27   ar
    36    34    29   ar
    37    27    22   ar
    38     6     1    1
    39    20    14   ar
    40    13     4    1
@<TRIPOS>MOLECULE
*****
 36 40 0 0 0
SMALL
GASTEIGER

@<TRIPOS>ATOM
      1 N         143.4693  142.2280  164.0502 N.3     1  UNL1       -0.2690
      2 C         144.0611  143.2702  163.1482 C.3     1  UNL1        0.0724
      3 C         144.3273  142.9510  161.7069 C.3     1  UNL1        0.0175
      4 C         144.0017  141.5897  161.1677 C.3     1  UNL1        0.0060
      5 C         143.4100  140.5475  162.0697 C.3     1  UNL1        0.0175
      6 C         143.1438  140.8667  163.5109 C.3     1  UNL1        0.0724
      7 C         144.5936  142.6319  160.2656 C.3     1  UNL1        0.0217
      8 C         144.8598  142.3127  158.8244 C.3     1  UNL1        0.0937
      9 N         144.5342  140.9514  158.2851 N.am    1  UNL1       -0.2761
     10 C         144.8004  140.6322  156.8438 C.2     1  UNL1        0.2490
     11 O         144.4749  139.2709  156.3046 O.2     1  UNL1       -0.2699
     12 C         143.9424  139.9092  159.1871 C.3     1  UNL1        0.0937
     13 C         143.6762  140.2284  160.6285 C.3     1  UNL1        0.0217
     14 C         145.3922  141.6744  155.9418 C.ar    1  UNL1        0.0536
     15 C         146.8809  141.8401  155.8627 C.ar    1  UNL1        0.0054
     16 C         147.4727  142.8822  154.9607 C.ar    1  UNL1        0.0115
     17 C         146.5757  143.7588  154.1377 C.ar    1  UNL1        0.0577
     18 CL        147.1675  144.8009  153.2357 Cl      1  UNL1       -0.0822
     19 C         145.0870  143.5931  154.2168 C.ar    1  UNL1        0.0115
     20 C         144.4952  142.5508  155.1189 C.ar    1  UNL1        0.0054
     21 C         143.2031  142.5472  165.4915 C.3     1  UNL1        0.0992
     22 C         139.6244  140.9813  166.1922 C.ar    1  UNL1        0.1452
     23 C         139.7649  140.5862  167.6324 C.ar    1  UNL1        0.0375
     24 C         141.0515  140.8448  168.3589 C.ar    1  UNL1        0.0029
     25 C         142.1975  141.4984  167.6453 C.ar    1  UNL1       -0.0027
     26 C         142.0571  141.8935  166.2051 C.ar    1  UNL1       -0.0031
     27 C         140.7705  141.6350  165.4785 C.ar    1  UNL1        0.0346
     28 O         138.3378  140.7228  165.4656 O.3     1  UNL1       -0.4504
     29 C         137.7254  140.3822  162.9638 C.ar    1  UNL1        0.1730
     30 C         137.7183  139.5244  161.7333 C.ar    1  UNL1        0.0401
     31 C         138.3165  138.1494  161.7740 C.ar    1  UNL1        0.0033
     32 C         138.9219  137.6323  163.0452 C.ar    1  UNL1        0.0033
     33 C         138.9290  138.4901  164.2758 C.ar    1  UNL1        0.0406
     34 C         138.3307  139.8650  164.2351 C.ar    1  UNL1        0.1789
     35 C         137.9556  142.9223  162.4692 C.3     1  UNL1        0.2526
     36 O         137.1271  141.7571  162.9231 O.3     1  UNL1       -0.4684
@<TRIPOS>BOND
     1    35    36    1
     2    36    29    1
     3    29    30   ar
     4    30    31   ar
     5    31    32   ar
     6    32    33   ar
     7    33    34   ar
     8    34    28    1
     9    28    22    1
    10    22    23   ar
    11    23    24   ar
    12    24    25   ar
    13    25    26   ar
    14    26    21    1
    15    21     1    1
    16     1     2    1
    17     2     3    1
    18     3     4    1
    19     4     5    1
    20     5     6    1
    21     4     7    1
    22     7     8    1
    23     8     9    1
    24     9    10   am
    25    10    11    2
    26    10    14    1
    27    14    15   ar
    28    15    16   ar
    29    16    17   ar
    30    17    18    1
    31    17    19   ar
    32    19    20   ar
    33     9    12    1
    34    12    13    1
    35    26    27   ar
    36    34    29   ar
    37    27    22   ar
    38     6     1    1
    39    20    14   ar
    40    13     4    1
@<TRIPOS>MOLECULE
*****
 36 40 0 0 0
SMALL
GASTEIGER

@<TRIPOS>ATOM
      1 N         138.3630  139.2248  165.4059 N.3     1  UNL1       -0.2690
      2 C         137.9879  140.4971  164.7055 C.3     1  UNL1        0.0724
      3 C         138.0863  140.5878  163.2115 C.3     1  UNL1        0.0175
      4 C         138.5597  139.4062  162.4179 C.3     1  UNL1        0.0060
      5 C         138.9348  138.1340  163.1183 C.3     1  UNL1        0.0175
      6 C         138.8364  138.0433  164.6123 C.3     1  UNL1        0.0724
      7 C         138.1847  140.6786  161.7174 C.3     1  UNL1        0.0217
      8 C         138.2830  140.7693  160.2235 C.3     1  UNL1        0.0937
      9 N         138.7565  139.5877  159.4299 N.am    1  UNL1       -0.2761
     10 C         138.8549  139.6785  157.9358 C.2     1  UNL1        0.2490
     11 O         139.3283  138.4969  157.1422 O.2     1  UNL1       -0.2699
     12 C         139.1316  138.3155  160.1303 C.3     1  UNL1        0.0937
     13 C         139.0332  138.2247  161.6244 C.3     1  UNL1        0.0217
     14 C         138.4798  140.9507  157.2354 C.ar    1  UNL1        0.0536
     15 C         137.0819  141.1427  156.7265 C.ar    1  UNL1        0.0054
     16 C         136.7068  142.4150  156.0261 C.ar    1  UNL1        0.0115
     17 C         137.7297  143.4954  155.8346 C.ar    1  UNL1        0.0577
     18 CL        137.3546  144.7676  155.1342 Cl      1  UNL1       -0.0822
     19 C         139.1276  143.3034  156.3435 C.ar    1  UNL1        0.0115
     20 C         139.5026  142.0310  157.0439 C.ar    1  UNL1        0.0054
     21 C         138.2646  139.1341  166.9000 C.3     1  UNL1        0.0992
     22 C         141.6523  140.8582  168.0406 C.ar    1  UNL1        0.1452
     23 C         141.3562  141.1373  169.4843 C.ar    1  UNL1        0.0375
     24 C         140.0296  140.7487  170.0666 C.ar    1  UNL1        0.0029
     25 C         138.9990  140.0810  169.2052 C.ar    1  UNL1       -0.0027
     26 C         139.2951  139.8018  167.7614 C.ar    1  UNL1       -0.0031
     27 C         140.6217  140.1904  167.1791 C.ar    1  UNL1        0.0346
     28 O         142.9789  141.2468  167.4583 O.3     1  UNL1       -0.4504
     29 C         143.6459  140.6219  165.0262 C.ar    1  UNL1        0.1730
     30 C         143.7506  140.9836  163.5743 C.ar    1  UNL1        0.0401
     31 C         143.2931  142.3320  163.1024 C.ar    1  UNL1        0.0033
     32 C         142.7308  143.3186  164.0824 C.ar    1  UNL1        0.0033
     33 C         142.6261  142.9568  165.5344 C.ar    1  UNL1        0.0406
     34 C         143.0836  141.6085  166.0063 C.ar    1  UNL1        0.1789
     35 C         143.1059  138.1720  165.7019 C.3     1  UNL1        0.2526
     36 O         144.1034  139.2736  165.4982 O.3     1  UNL1       -0.4684
@<TRIPOS>BOND
     1    35    36    1
     2    36    29    1
     3    29    30   ar
     4    30    31   ar
     5    31    32   ar
     6    32    33   ar
     7    33    34   ar
     8    34    28    1
     9    28    22    1
    10    22    23   ar
    11    23    24   ar
    12    24    25   ar
    13    25    26   ar
    14    26    21    1
    15    21     1    1
    16     1     2    1
    17     2     3    1
    18     3     4    1
    19     4     5    1
    20     5     6    1
    21     4     7    1
    22     7     8    1
    23     8     9    1
    24     9    10   am
    25    10    11    2
    26    10    14    1
    27    14    15   ar
    28    15    16   ar
    29    16    17   ar
    30    17    18    1
    31    17    19   ar
    32    19    20   ar
    33     9    12    1
    34    12    13    1
    35    26    27   ar
    36    34    29   ar
    37    27    22   ar
    38     6     1    1
    39    20    14   ar
    40    13     4    1
@<TRIPOS>MOLECULE
*****
 36 40 0 0 0
SMALL
GASTEIGER

@<TRIPOS>ATOM
      1 N         142.6720  140.0293  160.3961 N.3     1  UNL1       -0.2690
      2 C         141.8421  140.9852  161.2006 C.3     1  UNL1        0.0724
      3 C         141.8167  140.8809  162.6967 C.3     1  UNL1        0.0175
      4 C         142.6213  139.8206  163.3883 C.3     1  UNL1        0.0060
      5 C         143.4513  138.8646  162.5838 C.3     1  UNL1        0.0175
      6 C         143.4766  138.9689  161.0877 C.3     1  UNL1        0.0724
      7 C         141.7914  140.7766  164.1929 C.3     1  UNL1        0.0217
      8 C         141.7660  140.6722  165.6890 C.3     1  UNL1        0.0937
      9 N         142.5706  139.6119  166.3806 N.am    1  UNL1       -0.2761
     10 C         142.5452  139.5076  167.8769 C.2     1  UNL1        0.2490
     11 O         143.3498  138.4473  168.5685 O.2     1  UNL1       -0.2699
     12 C         143.4006  138.6559  165.5761 C.3     1  UNL1        0.0937
     13 C         143.4259  138.7602  164.0799 C.3     1  UNL1        0.0217
     14 C         141.7153  140.4636  168.6813 C.ar    1  UNL1        0.0536
     15 C         140.3218  140.0872  169.0894 C.ar    1  UNL1        0.0054
     16 C         139.4919  141.0432  169.8939 C.ar    1  UNL1        0.0115
     17 C         140.0554  142.3756  170.2904 C.ar    1  UNL1        0.0577
     18 CL        139.2255  143.3316  171.0949 Cl      1  UNL1       -0.0822
     19 C         141.4489  142.7520  169.8824 C.ar    1  UNL1        0.0115
     20 C         142.2789  141.7959  169.0778 C.ar    1  UNL1        0.0054
     21 C         142.6974  140.1336  158.8999 C.3     1  UNL1        0.0992
     22 C         142.3761  136.9471  156.5561 C.ar    1  UNL1        0.1452
     23 C         140.8878  136.8694  156.3858 C.ar    1  UNL1        0.0375
     24 C         140.0028  137.8797  157.0536 C.ar    1  UNL1        0.0029
     25 C         140.6059  138.9677  157.8916 C.ar    1  UNL1       -0.0027
     26 C         142.0942  139.0455  158.0619 C.ar    1  UNL1       -0.0031
     27 C         142.9793  138.0352  157.3941 C.ar    1  UNL1        0.0346
     28 O         143.2612  135.9368  155.8883 O.3     1  UNL1       -0.4504
     29 C         142.5260  133.4579  156.1424 C.ar    1  UNL1        0.1730
     30 C         141.9318  132.2124  155.5546 C.ar    1  UNL1        0.0401
     31 C         141.4785  132.2002  154.1247 C.ar    1  UNL1        0.0033
     32 C         141.6194  133.4336  153.2827 C.ar    1  UNL1        0.0033
     33 C         142.2136  134.6792  153.8706 C.ar    1  UNL1        0.0406
     34 C         142.6669  134.6913  155.3004 C.ar    1  UNL1        0.1789
     35 C         144.4163  133.1981  157.9057 C.3     1  UNL1        0.2526
     36 O         142.9794  133.4701  157.5722 O.3     1  UNL1       -0.4684
@<TRIPOS>BOND
     1    35    36    1
     2    36    29    1
     3    29    30   ar
     4    30    31   ar
     5    31    32   ar
     6    32    33   ar
     7    33    34   ar
     8    34    28    1
     9    28    22    1
    10    22    23   ar
    11    23    24   ar
    12    24    25   ar
    13    25    26   ar
    14    26    21    1
    15    21     1    1
    16     1     2    1
    17     2     3    1
    18     3     4    1
    19     4     5    1
    20     5     6    1
    21     4     7    1
    22     7     8    1
    23     8     9    1
    24     9    10   am
    25    10    11    2
    26    10    14    1
    27    14    15   ar
    28    15    16   ar
    29    16    17   ar
    30    17    18    1
    31    17    19   ar
    32    19    20   ar
    33     9    12    1
    34    12    13    1
    35    26    27   ar
    36    34    29   ar
    37    27    22   ar
    38     6     1    1
    39    20    14   ar
    40    13     4    1
@<TRIPOS>MOLECULE
*****
 36 40 0 0 0
SMALL
GASTEIGER

@<TRIPOS>ATOM
      1 N         144.1610  142.0027  163.4774 N.3     1  UNL1       -0.2690
      2 C         143.7440  140.5874  163.2074 C.3     1  UNL1        0.0724
      3 C         143.6015  140.1042  161.7945 C.3     1  UNL1        0.0175
      4 C         143.8759  141.0363  160.6518 C.3     1  UNL1        0.0060
      5 C         144.2929  142.4516  160.9218 C.3     1  UNL1        0.0175
      6 C         144.4355  142.9348  162.3346 C.3     1  UNL1        0.0724
      7 C         143.4589  139.6209  160.3816 C.3     1  UNL1        0.0217
      8 C         143.3164  139.1377  158.9688 C.3     1  UNL1        0.0937
      9 N         143.5908  140.0697  157.8260 N.am    1  UNL1       -0.2761
     10 C         143.4483  139.5864  156.4132 C.2     1  UNL1        0.2490
     11 O         143.7227  140.5185  155.2704 O.2     1  UNL1       -0.2699
     12 C         144.0078  141.4851  158.0961 C.3     1  UNL1        0.0937
     13 C         144.1504  141.9683  159.5090 C.3     1  UNL1        0.0217
     14 C         143.0313  138.1711  156.1431 C.ar    1  UNL1        0.0536
     15 C         141.5894  137.7771  156.2686 C.ar    1  UNL1        0.0054
     16 C         141.1724  136.3618  155.9985 C.ar    1  UNL1        0.0115
     17 C         142.1973  135.3404  155.6029 C.ar    1  UNL1        0.0577
     18 CL        141.7803  133.9251  155.3329 Cl      1  UNL1       -0.0822
     19 C         143.6392  135.7344  155.4775 C.ar    1  UNL1        0.0115
     20 C         144.0562  137.1498  155.7476 C.ar    1  UNL1        0.0054
     21 C         144.3036  142.4860  164.8903 C.3     1  UNL1        0.0992
     22 C         140.5690  143.0002  166.1307 C.ar    1  UNL1        0.1452
     23 C         140.7032  142.6558  167.5844 C.ar    1  UNL1        0.0375
     24 C         142.0375  142.2548  168.1401 C.ar    1  UNL1        0.0029
     25 C         143.2376  142.1982  167.2421 C.ar    1  UNL1       -0.0027
     26 C         143.1035  142.5426  165.7883 C.ar    1  UNL1       -0.0031
     27 C         141.7692  142.9436  165.2326 C.ar    1  UNL1        0.0346
     28 O         139.2347  143.4012  165.5750 O.3     1  UNL1       -0.4504
     29 C         138.6563  143.5208  163.0449 C.ar    1  UNL1        0.1730
     30 C         138.1357  142.8675  161.7991 C.ar    1  UNL1        0.0401
     31 C         137.6729  141.4411  161.8374 C.ar    1  UNL1        0.0033
     32 C         137.7307  140.6682  163.1216 C.ar    1  UNL1        0.0033
     33 C         138.2513  141.3215  164.3675 C.ar    1  UNL1        0.0406
     34 C         138.7141  142.7478  164.3291 C.ar    1  UNL1        0.1789
     35 C         139.7656  145.4928  161.7679 C.3     1  UNL1        0.2526
     36 O         139.1191  144.9471  163.0066 O.3     1  UNL1       -0.4684
@<TRIPOS>BOND
     1    35    36    1
     2    36    29    1
     3    29    30   ar
     4    30    31   ar
     5    31    32   ar
     6    32    33   ar
     7    33    34   ar
     8    34    28    1
     9    28    22    1
    10    22    23   ar
    11    23    24   ar
    12    24    25   ar
    13    25    26   ar
    14    26    21    1
    15    21     1    1
    16     1     2    1
    17     2     3    1
    18     3     4    1
    19     4     5    1
    20     5     6    1
    21     4     7    1
    22     7     8    1
    23     8     9    1
    24     9    10   am
    25    10    11    2
    26    10    14    1
    27    14    15   ar
    28    15    16   ar
    29    16    17   ar
    30    17    18    1
    31    17    19   ar
    32    19    20   ar
    33     9    12    1
    34    12    13    1
    35    26    27   ar
    36    34    29   ar
    37    27    22   ar
    38     6     1    1
    39    20    14   ar
    40    13     4    1
