@<TRIPOS>MOLECULE
*****
 35 39 0 0 0
SMALL
GASTEIGER

@<TRIPOS>ATOM
      1 N         138.2983  140.6903  162.3497 N.3     1  UNL1       -0.2712
      2 C         137.2422  141.4950  163.0475 C.3     1  UNL1        0.0738
      3 C         137.9271  142.5556  163.8575 C.3     1  UNL1        0.0372
      4 C         137.6978  143.7084  164.7893 C.3     1  UNL1        0.0245
      5 C         139.0355  144.2716  165.1681 C.3     1  UNL1        0.0910
      6 N         140.0916  143.4668  164.4702 N.pl3   1  UNL1       -0.3054
      7 C         139.4066  142.4063  163.6602 C.3     1  UNL1        0.0901
      8 C         139.6360  141.2535  162.7284 C.3     1  UNL1        0.0921
      9 C         141.5727  143.6844  164.5656 C.ar    1  UNL1        0.0826
     10 C         142.4262  142.7124  165.3248 C.ar    1  UNL1        0.0176
     11 C         143.9073  142.9300  165.4202 C.ar    1  UNL1        0.0015
     12 C         144.5348  144.1197  164.7563 C.ar    1  UNL1        0.0032
     13 C         143.6813  145.0918  163.9970 C.ar    1  UNL1        0.0385
     14 C         142.2002  144.8742  163.9016 C.ar    1  UNL1        0.1600
     15 O         141.3467  145.8463  163.1424 O.3     1  UNL1       -0.4032
     16 C         140.6486  145.4110  161.8882 C.3     1  UNL1        0.5753
     17 F         139.9504  144.9756  160.6339 F       1  UNL1       -0.1328
     18 F         139.3596  145.9727  162.4107 F       1  UNL1       -0.1328
     19 F         141.9376  144.8493  161.3657 F       1  UNL1       -0.1328
     20 C         138.0588  139.5267  161.4339 C.3     1  UNL1        0.0731
     21 C         138.4605  138.1446  161.8566 C.3     1  UNL1        0.0294
     22 C         139.7321  137.9348  162.6241 C.3     1  UNL1        0.0666
     23 S         139.6798  137.4721  164.0500 S.3     1  UNL1       -0.0756
     24 C         138.1142  139.4111  166.1567 C.3     1  UNL1        0.1340
     25 N         139.5963  139.1877  166.0980 N.ar    1  UNL1       -0.2872
     26 C         140.3159  138.2964  165.1297 C.ar    1  UNL1        0.1933
     27 N         141.7834  138.3742  165.4306 N.ar    1  UNL1       -0.1221
     28 N         141.9707  139.3135  166.5849 N.ar    1  UNL1       -0.1266
     29 C         140.6191  139.8163  166.9975 C.ar    1  UNL1        0.1862
     30 C         140.3392  140.7788  168.1135 C.ar    1  UNL1        0.1362
     31 C         139.7335  140.2864  169.3944 C.ar    1  UNL1        0.1211
     32 N         139.4537  141.2488  170.5103 N.ar    1  UNL1       -0.2390
     33 C         139.7797  142.7037  170.3454 C.ar    1  UNL1        0.1195
     34 C         140.3854  143.1961  169.0645 C.ar    1  UNL1        0.1196
     35 N         140.6652  142.2336  167.9485 N.ar    1  UNL1       -0.2375
@<TRIPOS>BOND
     1    24    25    1
     2    25    26   ar
     3    26    23    1
     4    23    22    1
     5    22    21    1
     6    21    20    1
     7    20     1    1
     8     1     2    1
     9     2     3    1
    10     3     4    1
    11     4     5    1
    12     5     6    1
    13     6     9    1
    14     9    10   ar
    15    10    11   ar
    16    11    12   ar
    17    12    13   ar
    18    13    14   ar
    19    14    15    1
    20    15    16    1
    21    16    17    1
    22    16    18    1
    23    16    19    1
    24     6     7    1
    25     7     8    1
    26    26    27   ar
    27    27    28   ar
    28    28    29   ar
    29    29    30    1
    30    30    31   ar
    31    31    32   ar
    32    32    33   ar
    33    33    34   ar
    34    34    35   ar
    35    29    25   ar
    36    35    30   ar
    37     8     1    1
    38     7     3    1
    39    14     9   ar
@<TRIPOS>MOLECULE
*****
 35 39 0 0 0
SMALL
GASTEIGER

@<TRIPOS>ATOM
      1 N         141.6351  143.1876  162.4596 N.3     1  UNL1       -0.2712
      2 C         140.7806  143.2344  161.2276 C.3     1  UNL1        0.0738
      3 C         139.7066  142.1969  161.3688 C.3     1  UNL1        0.0372
      4 C         138.5147  141.5845  160.6947 C.3     1  UNL1        0.0245
      5 C         137.9687  140.5181  161.5973 C.3     1  UNL1        0.0910
      6 N         138.8233  140.4713  162.8293 N.pl3   1  UNL1       -0.3054
      7 C         139.8973  141.5089  162.6880 C.3     1  UNL1        0.0901
      8 C         141.0892  142.1212  163.3622 C.3     1  UNL1        0.0921
      9 C         138.6365  139.5489  163.9973 C.ar    1  UNL1        0.0826
     10 C         138.0580  140.0700  165.2794 C.ar    1  UNL1        0.0176
     11 C         137.8712  139.1476  166.4475 C.ar    1  UNL1        0.0015
     12 C         138.2630  137.7042  166.3335 C.ar    1  UNL1        0.0032
     13 C         138.8416  137.1831  165.0513 C.ar    1  UNL1        0.0385
     14 C         139.0283  138.1055  163.8833 C.ar    1  UNL1        0.1600
     15 O         139.6068  137.5844  162.6012 O.3     1  UNL1       -0.4032
     16 C         141.0846  137.6661  162.3574 C.3     1  UNL1        0.5753
     17 F         142.5625  137.7477  162.1137 F       1  UNL1       -0.1328
     18 F         141.3239  136.7094  163.4878 F       1  UNL1       -0.1328
     19 F         140.8453  138.6227  161.2272 F       1  UNL1       -0.1328
     20 C         142.8264  144.0550  162.7397 C.3     1  UNL1        0.0731
     21 C         144.1531  143.7301  162.1200 C.3     1  UNL1        0.0294
     22 C         144.6243  142.3073  162.0591 C.3     1  UNL1        0.0666
     23 S         145.3176  141.6956  163.2402 S.3     1  UNL1       -0.0756
     24 C         143.7684  142.6360  165.9541 C.3     1  UNL1        0.1340
     25 N         143.8459  141.2351  165.4236 N.ar    1  UNL1       -0.2872
     26 C         144.5580  140.8029  164.1762 C.ar    1  UNL1        0.1933
     27 N         144.3771  139.3211  164.0290 N.ar    1  UNL1       -0.1221
     28 N         143.5532  138.8376  165.1854 N.ar    1  UNL1       -0.1266
     29 C         143.2249  140.0205  166.0474 C.ar    1  UNL1        0.1862
     30 C         142.4174  139.9935  167.3113 C.ar    1  UNL1        0.1362
     31 C         141.0818  140.6743  167.3626 C.ar    1  UNL1        0.1211
     32 N         140.2743  140.6473  168.6264 N.ar    1  UNL1       -0.2390
     33 C         140.8026  139.9394  169.8389 C.ar    1  UNL1        0.1195
     34 C         142.1382  139.2587  169.7876 C.ar    1  UNL1        0.1196
     35 N         142.9456  139.2857  168.5237 N.ar    1  UNL1       -0.2375
@<TRIPOS>BOND
     1    24    25    1
     2    25    26   ar
     3    26    23    1
     4    23    22    1
     5    22    21    1
     6    21    20    1
     7    20     1    1
     8     1     2    1
     9     2     3    1
    10     3     4    1
    11     4     5    1
    12     5     6    1
    13     6     9    1
    14     9    10   ar
    15    10    11   ar
    16    11    12   ar
    17    12    13   ar
    18    13    14   ar
    19    14    15    1
    20    15    16    1
    21    16    17    1
    22    16    18    1
    23    16    19    1
    24     6     7    1
    25     7     8    1
    26    26    27   ar
    27    27    28   ar
    28    28    29   ar
    29    29    30    1
    30    30    31   ar
    31    31    32   ar
    32    32    33   ar
    33    33    34   ar
    34    34    35   ar
    35    29    25   ar
    36    35    30   ar
    37     8     1    1
    38     7     3    1
    39    14     9   ar
@<TRIPOS>MOLECULE
*****
 35 39 0 0 0
SMALL
GASTEIGER

@<TRIPOS>ATOM
      1 N         139.5670  138.2540  163.8049 N.3     1  UNL1       -0.2712
      2 C         140.9461  137.6658  163.7573 C.3     1  UNL1        0.0738
      3 C         141.7159  138.1937  164.9315 C.3     1  UNL1        0.0372
      4 C         143.0440  138.1565  165.6277 C.3     1  UNL1        0.0245
      5 C         142.9616  139.0480  166.8313 C.3     1  UNL1        0.0910
      6 N         141.5825  139.6362  166.8788 N.pl3   1  UNL1       -0.3054
      7 C         140.8127  139.1082  165.7047 C.3     1  UNL1        0.0901
      8 C         139.4846  139.1455  165.0084 C.3     1  UNL1        0.0921
      9 C         141.0643  140.5856  167.9181 C.ar    1  UNL1        0.0826
     10 C         140.5821  140.0621  169.2384 C.ar    1  UNL1        0.0176
     11 C         140.0639  141.0116  170.2777 C.ar    1  UNL1        0.0015
     12 C         140.0279  142.4845  169.9966 C.ar    1  UNL1        0.0032
     13 C         140.5101  143.0081  168.6761 C.ar    1  UNL1        0.0385
     14 C         141.0283  142.0586  167.6369 C.ar    1  UNL1        0.1600
     15 O         141.5106  142.5822  166.3166 O.3     1  UNL1       -0.4032
     16 C         142.9468  142.4085  165.9203 C.3     1  UNL1        0.5753
     17 F         144.3831  142.2349  165.5240 F       1  UNL1       -0.1328
     18 F         143.3753  142.7908  167.3061 F       1  UNL1       -0.1328
     19 F         142.5182  142.0263  164.5346 F       1  UNL1       -0.1328
     20 C         138.4640  137.9960  162.8216 C.3     1  UNL1        0.0731
     21 C         138.6976  138.2194  161.3569 C.3     1  UNL1        0.0294
     22 C         137.8741  139.2272  160.6111 C.3     1  UNL1        0.0666
     23 S         138.5340  140.1731  159.6521 S.3     1  UNL1       -0.0756
     24 C         141.2669  140.6479  161.3713 C.3     1  UNL1        0.1340
     25 N         140.3075  141.7127  160.9286 N.ar    1  UNL1       -0.2872
     26 C         139.0514  141.4944  160.1384 C.ar    1  UNL1        0.1933
     27 N         138.4033  142.8295  159.9199 N.ar    1  UNL1       -0.1221
     28 N         139.2590  143.8728  160.5750 N.ar    1  UNL1       -0.1266
     29 C         140.4359  143.1827  161.1985 C.ar    1  UNL1        0.1862
     30 C         141.5461  143.8460  161.9584 C.ar    1  UNL1        0.1362
     31 C         142.9726  143.6160  161.5555 C.ar    1  UNL1        0.1211
     32 N         144.0828  144.2793  162.3154 N.ar    1  UNL1       -0.2390
     33 C         143.7664  145.1726  163.4782 C.ar    1  UNL1        0.1195
     34 C         142.3400  145.4026  163.8811 C.ar    1  UNL1        0.1196
     35 N         141.2298  144.7392  163.1211 N.ar    1  UNL1       -0.2375
@<TRIPOS>BOND
     1    24    25    1
     2    25    26   ar
     3    26    23    1
     4    23    22    1
     5    22    21    1
     6    21    20    1
     7    20     1    1
     8     1     2    1
     9     2     3    1
    10     3     4    1
    11     4     5    1
    12     5     6    1
    13     6     9    1
    14     9    10   ar
    15    10    11   ar
    16    11    12   ar
    17    12    13   ar
    18    13    14   ar
    19    14    15    1
    20    15    16    1
    21    16    17    1
    22    16    18    1
    23    16    19    1
    24     6     7    1
    25     7     8    1
    26    26    27   ar
    27    27    28   ar
    28    28    29   ar
    29    29    30    1
    30    30    31   ar
    31    31    32   ar
    32    32    33   ar
    33    33    34   ar
    34    34    35   ar
    35    29    25   ar
    36    35    30   ar
    37     8     1    1
    38     7     3    1
    39    14     9   ar
@<TRIPOS>MOLECULE
*****
 35 39 0 0 0
SMALL
GASTEIGER

@<TRIPOS>ATOM
      1 N         139.5138  143.8560  163.5488 N.3     1  UNL1       -0.2712
      2 C         140.4711  144.7685  164.2566 C.3     1  UNL1        0.0738
      3 C         141.8317  144.5671  163.6582 C.3     1  UNL1        0.0372
      4 C         143.2643  145.0065  163.7257 C.3     1  UNL1        0.0245
      5 C         144.0333  144.2413  162.6899 C.3     1  UNL1        0.0910
      6 N         143.0759  143.3288  161.9821 N.pl3   1  UNL1       -0.3054
      7 C         141.7153  143.5302  162.5805 C.3     1  UNL1        0.0901
      8 C         140.2827  143.0907  162.5129 C.3     1  UNL1        0.0921
      9 C         143.4190  142.3813  160.8710 C.ar    1  UNL1        0.0826
     10 C         143.6964  142.9086  159.4944 C.ar    1  UNL1        0.0176
     11 C         144.0394  141.9612  158.3833 C.ar    1  UNL1        0.0015
     12 C         144.1051  140.4863  158.6487 C.ar    1  UNL1        0.0032
     13 C         143.8277  139.9589  160.0253 C.ar    1  UNL1        0.0385
     14 C         143.4847  140.9064  161.1364 C.ar    1  UNL1        0.1600
     15 O         143.2073  140.3790  162.5130 O.3     1  UNL1       -0.4032
     16 C         144.3172  139.7788  163.3239 C.3     1  UNL1        0.5753
     17 F         145.4272  139.1784  164.1348 F       1  UNL1       -0.1328
     18 F         143.6026  138.4598  163.3256 F       1  UNL1       -0.1328
     19 F         145.0317  141.0976  163.3221 F       1  UNL1       -0.1328
     20 C         138.0453  143.7308  163.8279 C.3     1  UNL1        0.0731
     21 C         137.4899  142.4425  164.3586 C.3     1  UNL1        0.0294
     22 C         137.5346  141.2025  163.5156 C.3     1  UNL1        0.0666
     23 S         138.2912  139.9983  163.9923 S.3     1  UNL1       -0.0756
     24 C         140.6351  141.2960  165.8556 C.3     1  UNL1        0.1340
     25 N         139.5572  140.3611  166.3184 N.ar    1  UNL1       -0.2872
     26 C         138.4799  139.7646  165.4619 C.ar    1  UNL1        0.1933
     27 N         137.6243  138.8933  166.3331 N.ar    1  UNL1       -0.1221
     28 N         138.1729  138.9513  167.7279 N.ar    1  UNL1       -0.1266
     29 C         139.3675  139.8584  167.7189 C.ar    1  UNL1        0.1862
     30 C         140.2223  140.2025  168.9026 C.ar    1  UNL1        0.1362
     31 C         139.6271  140.9302  170.0714 C.ar    1  UNL1        0.1211
     32 N         140.4819  141.2742  171.2550 N.ar    1  UNL1       -0.2390
     33 C         141.9319  140.8905  171.2697 C.ar    1  UNL1        0.1195
     34 C         142.5272  140.1628  170.1009 C.ar    1  UNL1        0.1196
     35 N         141.6723  139.8188  168.9173 N.ar    1  UNL1       -0.2375
@<TRIPOS>BOND
     1    24    25    1
     2    25    26   ar
     3    26    23    1
     4    23    22    1
     5    22    21    1
     6    21    20    1
     7    20     1    1
     8     1     2    1
     9     2     3    1
    10     3     4    1
    11     4     5    1
    12     5     6    1
    13     6     9    1
    14     9    10   ar
    15    10    11   ar
    16    11    12   ar
    17    12    13   ar
    18    13    14   ar
    19    14    15    1
    20    15    16    1
    21    16    17    1
    22    16    18    1
    23    16    19    1
    24     6     7    1
    25     7     8    1
    26    26    27   ar
    27    27    28   ar
    28    28    29   ar
    29    29    30    1
    30    30    31   ar
    31    31    32   ar
    32    32    33   ar
    33    33    34   ar
    34    34    35   ar
    35    29    25   ar
    36    35    30   ar
    37     8     1    1
    38     7     3    1
    39    14     9   ar
@<TRIPOS>MOLECULE
*****
 35 39 0 0 0
SMALL
GASTEIGER

@<TRIPOS>ATOM
      1 N         138.3196  140.1924  163.4700 N.3     1  UNL1       -0.2712
      2 C         137.6118  141.4756  163.1498 C.3     1  UNL1        0.0738
      3 C         138.1319  142.5352  164.0754 C.3     1  UNL1        0.0372
      4 C         138.0159  143.9832  164.4495 C.3     1  UNL1        0.0245
      5 C         138.9735  144.2499  165.5729 C.3     1  UNL1        0.0910
      6 N         139.6813  142.9666  165.8931 N.pl3   1  UNL1       -0.3054
      7 C         139.1612  141.9070  164.9675 C.3     1  UNL1        0.0901
      8 C         139.2772  140.4590  164.5934 C.3     1  UNL1        0.0921
      9 C         140.7258  142.7765  166.9527 C.ar    1  UNL1        0.0826
     10 C         140.4003  143.0682  168.3876 C.ar    1  UNL1        0.0176
     11 C         141.4449  142.8780  169.4472 C.ar    1  UNL1        0.0015
     12 C         142.8149  142.3963  169.0720 C.ar    1  UNL1        0.0032
     13 C         143.1404  142.1046  167.6370 C.ar    1  UNL1        0.0385
     14 C         142.0959  142.2947  166.5774 C.ar    1  UNL1        0.1600
     15 O         142.4214  142.0030  165.1425 O.3     1  UNL1       -0.4032
     16 C         143.3649  140.8887  164.7991 C.3     1  UNL1        0.5753
     17 F         144.3084  139.7742  164.4556 F       1  UNL1       -0.1328
     18 F         142.2855  139.8869  165.0844 F       1  UNL1       -0.1328
     19 F         144.4442  141.8905  164.5138 F       1  UNL1       -0.1328
     20 C         138.1072  138.8741  162.7867 C.3     1  UNL1        0.0731
     21 C         138.5318  138.6919  161.3597 C.3     1  UNL1        0.0294
     22 C         137.8617  139.4775  160.2716 C.3     1  UNL1        0.0666
     23 S         138.6697  140.3950  159.4025 S.3     1  UNL1       -0.0756
     24 C         141.3423  140.7439  161.2423 C.3     1  UNL1        0.1340
     25 N         140.4234  141.8456  160.8043 N.ar    1  UNL1       -0.2872
     26 C         139.1950  141.6853  159.9586 C.ar    1  UNL1        0.1933
     27 N         138.5839  143.0417  159.7667 N.ar    1  UNL1       -0.1221
     28 N         139.4348  144.0404  160.4938 N.ar    1  UNL1       -0.1266
     29 C         140.5717  143.3013  161.1351 C.ar    1  UNL1        0.1862
     30 C         141.6648  143.9107  161.9619 C.ar    1  UNL1        0.1362
     31 C         141.3267  144.8826  163.0532 C.ar    1  UNL1        0.1211
     32 N         142.4199  145.4921  163.8800 N.ar    1  UNL1       -0.2390
     33 C         143.8512  145.1294  163.6155 C.ar    1  UNL1        0.1195
     34 C         144.1893  144.1574  162.5242 C.ar    1  UNL1        0.1196
     35 N         143.0961  143.5480  161.6974 N.ar    1  UNL1       -0.2375
@<TRIPOS>BOND
     1    24    25    1
     2    25    26   ar
     3    26    23    1
     4    23    22    1
     5    22    21    1
     6    21    20    1
     7    20     1    1
     8     1     2    1
     9     2     3    1
    10     3     4    1
    11     4     5    1
    12     5     6    1
    13     6     9    1
    14     9    10   ar
    15    10    11   ar
    16    11    12   ar
    17    12    13   ar
    18    13    14   ar
    19    14    15    1
    20    15    16    1
    21    16    17    1
    22    16    18    1
    23    16    19    1
    24     6     7    1
    25     7     8    1
    26    26    27   ar
    27    27    28   ar
    28    28    29   ar
    29    29    30    1
    30    30    31   ar
    31    31    32   ar
    32    32    33   ar
    33    33    34   ar
    34    34    35   ar
    35    29    25   ar
    36    35    30   ar
    37     8     1    1
    38     7     3    1
    39    14     9   ar
@<TRIPOS>MOLECULE
*****
 35 39 0 0 0
SMALL
GASTEIGER

@<TRIPOS>ATOM
      1 N         143.4301  140.2657  162.5415 N.3     1  UNL1       -0.2712
      2 C         144.4686  141.3209  162.3006 C.3     1  UNL1        0.0738
      3 C         143.8400  142.6578  162.5608 C.3     1  UNL1        0.0372
      4 C         144.0934  144.1362  162.5727 C.3     1  UNL1        0.0245
      5 C         142.8230  144.8210  162.9817 C.3     1  UNL1        0.0910
      6 N         141.7844  143.7657  163.2225 N.pl3   1  UNL1       -0.3054
      7 C         142.4130  142.4288  162.9624 C.3     1  UNL1        0.0901
      8 C         142.1597  140.9504  162.9505 C.3     1  UNL1        0.0921
      9 C         140.3663  144.0052  163.6487 C.ar    1  UNL1        0.0826
     10 C         140.0700  144.4593  165.0472 C.ar    1  UNL1        0.0176
     11 C         138.6519  144.6989  165.4734 C.ar    1  UNL1        0.0015
     12 C         137.5301  144.4844  164.5010 C.ar    1  UNL1        0.0032
     13 C         137.8264  144.0303  163.1024 C.ar    1  UNL1        0.0385
     14 C         139.2445  143.7907  162.6762 C.ar    1  UNL1        0.1600
     15 O         139.5409  143.3367  161.2777 O.3     1  UNL1       -0.4032
     16 C         138.8007  142.1691  160.6956 C.3     1  UNL1        0.5753
     17 F         138.0605  141.0014  160.1135 F       1  UNL1       -0.1328
     18 F         139.0809  141.3732  161.9358 F       1  UNL1       -0.1328
     19 F         138.5206  142.9650  159.4554 F       1  UNL1       -0.1328
     20 C         143.6273  138.7856  162.3985 C.3     1  UNL1        0.0731
     21 C         142.6888  137.9827  161.5473 C.3     1  UNL1        0.0294
     22 C         141.3177  137.6466  162.0543 C.3     1  UNL1        0.0666
     23 S         141.1334  137.1874  163.4703 S.3     1  UNL1       -0.0756
     24 C         142.2816  138.8529  166.0311 C.3     1  UNL1        0.1340
     25 N         140.8464  138.7744  165.6021 N.ar    1  UNL1       -0.2872
     26 C         140.3186  138.0089  164.4250 C.ar    1  UNL1        0.1933
     27 N         138.8331  138.2091  164.3702 N.ar    1  UNL1       -0.1221
     28 N         138.4427  139.0983  165.5134 N.ar    1  UNL1       -0.1266
     29 C         139.6870  139.4477  166.2748 C.ar    1  UNL1        0.1862
     30 C         139.7592  140.3177  167.4946 C.ar    1  UNL1        0.1362
     31 C         140.3555  141.6909  167.4022 C.ar    1  UNL1        0.1211
     32 N         140.4277  142.5609  168.6221 N.ar    1  UNL1       -0.2390
     33 C         139.9036  142.0574  169.9343 C.ar    1  UNL1        0.1195
     34 C         139.3073  140.6842  170.0267 C.ar    1  UNL1        0.1196
     35 N         139.2351  139.8143  168.8068 N.ar    1  UNL1       -0.2375
@<TRIPOS>BOND
     1    24    25    1
     2    25    26   ar
     3    26    23    1
     4    23    22    1
     5    22    21    1
     6    21    20    1
     7    20     1    1
     8     1     2    1
     9     2     3    1
    10     3     4    1
    11     4     5    1
    12     5     6    1
    13     6     9    1
    14     9    10   ar
    15    10    11   ar
    16    11    12   ar
    17    12    13   ar
    18    13    14   ar
    19    14    15    1
    20    15    16    1
    21    16    17    1
    22    16    18    1
    23    16    19    1
    24     6     7    1
    25     7     8    1
    26    26    27   ar
    27    27    28   ar
    28    28    29   ar
    29    29    30    1
    30    30    31   ar
    31    31    32   ar
    32    32    33   ar
    33    33    34   ar
    34    34    35   ar
    35    29    25   ar
    36    35    30   ar
    37     8     1    1
    38     7     3    1
    39    14     9   ar
@<TRIPOS>MOLECULE
*****
 35 39 0 0 0
SMALL
GASTEIGER

@<TRIPOS>ATOM
      1 N         141.7833  143.7589  162.4348 N.3     1  UNL1       -0.2712
      2 C         140.7203  144.7726  162.7386 C.3     1  UNL1        0.0738
      3 C         139.5926  144.0678  163.4327 C.3     1  UNL1        0.0372
      4 C         138.2387  144.2587  164.0494 C.3     1  UNL1        0.0245
      5 C         137.7680  142.9274  164.5557 C.3     1  UNL1        0.0910
      6 N         138.8311  141.9138  164.2518 N.pl3   1  UNL1       -0.3054
      7 C         139.9588  142.6185  163.5578 C.3     1  UNL1        0.0901
      8 C         141.3127  142.4276  162.9410 C.3     1  UNL1        0.0921
      9 C         138.7762  140.4520  164.5838 C.ar    1  UNL1        0.0826
     10 C         138.5800  140.0123  166.0043 C.ar    1  UNL1        0.0176
     11 C         138.5250  138.5505  166.3363 C.ar    1  UNL1        0.0015
     12 C         138.6664  137.5284  165.2476 C.ar    1  UNL1        0.0032
     13 C         138.8627  137.9680  163.8269 C.ar    1  UNL1        0.0385
     14 C         138.9176  139.4298  163.4950 C.ar    1  UNL1        0.1600
     15 O         139.1139  139.8695  162.0744 O.3     1  UNL1       -0.4032
     16 C         137.9833  139.7657  161.0942 C.3     1  UNL1        0.5753
     17 F         136.8525  139.6620  160.1140 F       1  UNL1       -0.1328
     18 F         137.3784  141.0166  161.6596 F       1  UNL1       -0.1328
     19 F         138.5882  138.5150  160.5289 F       1  UNL1       -0.1328
     20 C         143.0880  144.0290  161.7457 C.3     1  UNL1        0.0731
     21 C         144.3798  143.6704  162.4183 C.3     1  UNL1        0.0294
     22 C         144.9874  142.3161  162.2021 C.3     1  UNL1        0.0666
     23 S         145.3361  141.4539  163.3790 S.3     1  UNL1       -0.0756
     24 C         144.0266  142.9469  165.9685 C.3     1  UNL1        0.1340
     25 N         143.6472  141.5929  165.4462 N.ar    1  UNL1       -0.2872
     26 C         144.2491  140.9067  164.2559 C.ar    1  UNL1        0.1933
     27 N         143.5732  139.5771  164.0965 N.ar    1  UNL1       -0.1221
     28 N         142.5536  139.4416  165.1882 N.ar    1  UNL1       -0.1266
     29 C         142.5992  140.6874  166.0225 C.ar    1  UNL1        0.1862
     30 C         141.7467  140.9770  167.2222 C.ar    1  UNL1        0.1362
     31 C         141.1300  142.3334  167.3944 C.ar    1  UNL1        0.1211
     32 N         140.2775  142.6229  168.5941 N.ar    1  UNL1       -0.2390
     33 C         140.0417  141.5558  169.6217 C.ar    1  UNL1        0.1195
     34 C         140.6584  140.1994  169.4495 C.ar    1  UNL1        0.1196
     35 N         141.5109  139.9099  168.2497 N.ar    1  UNL1       -0.2375
@<TRIPOS>BOND
     1    24    25    1
     2    25    26   ar
     3    26    23    1
     4    23    22    1
     5    22    21    1
     6    21    20    1
     7    20     1    1
     8     1     2    1
     9     2     3    1
    10     3     4    1
    11     4     5    1
    12     5     6    1
    13     6     9    1
    14     9    10   ar
    15    10    11   ar
    16    11    12   ar
    17    12    13   ar
    18    13    14   ar
    19    14    15    1
    20    15    16    1
    21    16    17    1
    22    16    18    1
    23    16    19    1
    24     6     7    1
    25     7     8    1
    26    26    27   ar
    27    27    28   ar
    28    28    29   ar
    29    29    30    1
    30    30    31   ar
    31    31    32   ar
    32    32    33   ar
    33    33    34   ar
    34    34    35   ar
    35    29    25   ar
    36    35    30   ar
    37     8     1    1
    38     7     3    1
    39    14     9   ar
@<TRIPOS>MOLECULE
*****
 35 39 0 0 0
SMALL
GASTEIGER

@<TRIPOS>ATOM
      1 N         138.9729  143.4596  164.2208 N.3     1  UNL1       -0.2712
      2 C         138.1938  142.3911  163.5126 C.3     1  UNL1        0.0738
      3 C         138.4480  141.0900  164.2144 C.3     1  UNL1        0.0372
      4 C         138.1236  139.6255  164.2105 C.3     1  UNL1        0.0245
      5 C         138.8592  138.9847  165.3499 C.3     1  UNL1        0.0910
      6 N         139.6382  140.0532  166.0581 N.pl3   1  UNL1       -0.3054
      7 C         139.3841  141.3543  165.3563 C.3     1  UNL1        0.0901
      8 C         139.7085  142.8188  165.3602 C.3     1  UNL1        0.0921
      9 C         140.5171  139.8553  167.2574 C.ar    1  UNL1        0.0826
     10 C         139.9658  140.0727  168.6353 C.ar    1  UNL1        0.0176
     11 C         140.8446  139.8748  169.8346 C.ar    1  UNL1        0.0015
     12 C         142.2749  139.4595  169.6561 C.ar    1  UNL1        0.0032
     13 C         142.8263  139.2421  168.2781 C.ar    1  UNL1        0.0385
     14 C         141.9474  139.4400  167.0788 C.ar    1  UNL1        0.1600
     15 O         142.4988  139.2226  165.7008 O.3     1  UNL1       -0.4032
     16 C         143.6338  140.0687  165.2051 C.3     1  UNL1        0.5753
     17 F         144.7688  140.9149  164.7094 F       1  UNL1       -0.1328
     18 F         144.4848  138.8420  165.0599 F       1  UNL1       -0.1328
     19 F         142.7827  141.2953  165.3503 F       1  UNL1       -0.1328
     20 C         139.0098  144.9136  163.8539 C.3     1  UNL1        0.0731
     21 C         138.7448  145.3372  162.4396 C.3     1  UNL1        0.0294
     22 C         139.7555  146.1653  161.7028 C.3     1  UNL1        0.0666
     23 S         140.7367  145.5053  160.7800 S.3     1  UNL1       -0.0756
     24 C         140.1256  142.3165  160.4514 C.3     1  UNL1        0.1340
     25 N         141.3197  142.9201  161.1293 N.ar    1  UNL1       -0.2872
     26 C         141.6006  144.3858  161.2804 C.ar    1  UNL1        0.1933
     27 N         142.8972  144.5355  162.0197 N.ar    1  UNL1       -0.1221
     28 N         143.4176  143.1623  162.3256 N.ar    1  UNL1       -0.1266
     29 C         142.4427  142.1639  161.7753 C.ar    1  UNL1        0.1862
     30 C         142.5687  140.6714  161.8567 C.ar    1  UNL1        0.1362
     31 C         143.8461  140.0029  161.4431 C.ar    1  UNL1        0.1211
     32 N         143.9721  138.5104  161.5245 N.ar    1  UNL1       -0.2390
     33 C         142.8204  137.6865  162.0195 C.ar    1  UNL1        0.1195
     34 C         141.5430  138.3550  162.4332 C.ar    1  UNL1        0.1196
     35 N         141.4171  139.8475  162.3518 N.ar    1  UNL1       -0.2375
@<TRIPOS>BOND
     1    24    25    1
     2    25    26   ar
     3    26    23    1
     4    23    22    1
     5    22    21    1
     6    21    20    1
     7    20     1    1
     8     1     2    1
     9     2     3    1
    10     3     4    1
    11     4     5    1
    12     5     6    1
    13     6     9    1
    14     9    10   ar
    15    10    11   ar
    16    11    12   ar
    17    12    13   ar
    18    13    14   ar
    19    14    15    1
    20    15    16    1
    21    16    17    1
    22    16    18    1
    23    16    19    1
    24     6     7    1
    25     7     8    1
    26    26    27   ar
    27    27    28   ar
    28    28    29   ar
    29    29    30    1
    30    30    31   ar
    31    31    32   ar
    32    32    33   ar
    33    33    34   ar
    34    34    35   ar
    35    29    25   ar
    36    35    30   ar
    37     8     1    1
    38     7     3    1
    39    14     9   ar
@<TRIPOS>MOLECULE
*****
 35 39 0 0 0
SMALL
GASTEIGER

@<TRIPOS>ATOM
      1 N         140.2965  144.5723  163.5882 N.3     1  UNL1       -0.2712
      2 C         141.7689  144.3589  163.3978 C.3     1  UNL1        0.0738
      3 C         142.2749  143.5561  164.5594 C.3     1  UNL1        0.0372
      4 C         143.4977  142.9279  165.1597 C.3     1  UNL1        0.0245
      5 C         143.0937  142.2570  166.4391 C.3     1  UNL1        0.0910
      6 N         141.6211  142.4705  166.6294 N.pl3   1  UNL1       -0.3054
      7 C         141.1152  143.2733  165.4678 C.3     1  UNL1        0.0901
      8 C         139.8924  143.9015  164.8675 C.3     1  UNL1        0.0921
      9 C         140.7990  141.9692  167.7796 C.ar    1  UNL1        0.0826
     10 C         140.6854  142.7859  169.0325 C.ar    1  UNL1        0.0176
     11 C         139.8633  142.2846  170.1826 C.ar    1  UNL1        0.0015
     12 C         139.1548  140.9665  170.0798 C.ar    1  UNL1        0.0032
     13 C         139.2684  140.1497  168.8268 C.ar    1  UNL1        0.0385
     14 C         140.0905  140.6510  167.6767 C.ar    1  UNL1        0.1600
     15 O         140.2041  139.8343  166.4237 O.3     1  UNL1       -0.4032
     16 C         138.9800  139.5344  165.6103 C.3     1  UNL1        0.5753
     17 F         137.7558  139.2346  164.7969 F       1  UNL1       -0.1328
     18 F         138.8581  140.9875  165.2583 F       1  UNL1       -0.1328
     19 F         139.1019  138.0815  165.9624 F       1  UNL1       -0.1328
     20 C         139.3876  145.3246  162.6619 C.3     1  UNL1        0.0731
     21 C         139.9636  146.1192  161.5275 C.3     1  UNL1        0.0294
     22 C         140.3627  145.4306  160.2560 C.3     1  UNL1        0.0666
     23 S         139.8755  144.0409  159.9709 S.3     1  UNL1       -0.0756
     24 C         138.9308  141.6754  162.0109 C.3     1  UNL1        0.1340
     25 N         140.2626  141.7703  161.3273 N.ar    1  UNL1       -0.2872
     26 C         140.6969  142.8576  160.3897 C.ar    1  UNL1        0.1933
     27 N         142.0966  142.5540  159.9442 N.ar    1  UNL1       -0.1221
     28 N         142.5276  141.2790  160.6066 N.ar    1  UNL1       -0.1266
     29 C         141.3941  140.7946  161.4614 C.ar    1  UNL1        0.1862
     30 C         141.3924  139.5527  162.3026 C.ar    1  UNL1        0.1362
     31 C         140.4931  138.4064  161.9458 C.ar    1  UNL1        0.1211
     32 N         140.4914  137.1645  162.7870 N.ar    1  UNL1       -0.2390
     33 C         141.3891  137.0689  163.9850 C.ar    1  UNL1        0.1195
     34 C         142.2884  138.2151  164.3418 C.ar    1  UNL1        0.1196
     35 N         142.2901  139.4571  163.5005 N.ar    1  UNL1       -0.2375
@<TRIPOS>BOND
     1    24    25    1
     2    25    26   ar
     3    26    23    1
     4    23    22    1
     5    22    21    1
     6    21    20    1
     7    20     1    1
     8     1     2    1
     9     2     3    1
    10     3     4    1
    11     4     5    1
    12     5     6    1
    13     6     9    1
    14     9    10   ar
    15    10    11   ar
    16    11    12   ar
    17    12    13   ar
    18    13    14   ar
    19    14    15    1
    20    15    16    1
    21    16    17    1
    22    16    18    1
    23    16    19    1
    24     6     7    1
    25     7     8    1
    26    26    27   ar
    27    27    28   ar
    28    28    29   ar
    29    29    30    1
    30    30    31   ar
    31    31    32   ar
    32    32    33   ar
    33    33    34   ar
    34    34    35   ar
    35    29    25   ar
    36    35    30   ar
    37     8     1    1
    38     7     3    1
    39    14     9   ar
