@<TRIPOS>MOLECULE
*****
 31 35 0 0 0
SMALL
GASTEIGER

@<TRIPOS>ATOM
      1 N         141.2121  142.2557  164.5710 N.pl3   1  UNL1       -0.2090
      2 N         141.7299  143.1704  163.5008 N.2     1  UNL1       -0.1821
      3 C         141.2606  142.6463  162.1761 C.2     1  UNL1        0.0783
      4 C         140.4527  141.4077  162.4275 C.3     1  UNL1        0.0737
      5 C         140.4227  141.1663  163.9076 C.3     1  UNL1        0.1244
      6 C         141.5486  143.2540  160.8352 C.2     1  UNL1        0.0143
      7 C         142.8059  142.8914  160.1019 C.2     1  UNL1       -0.0186
      8 C         143.0938  143.4992  158.7612 C.3     1  UNL1        0.0725
      9 C         142.1245  144.4695  158.1537 C.2     1  UNL1        0.0933
     10 N         142.1390  145.2240  156.8573 N.am    1  UNL1       -0.1431
     11 C         140.8907  146.0529  156.7895 C.2     1  UNL1        0.4298
     12 O         140.4973  146.9640  155.6647 O.2     1  UNL1       -0.2238
     13 O         140.1047  145.8107  158.0440 O.3     1  UNL1       -0.4079
     14 C         140.8673  144.8321  158.8871 C.2     1  UNL1        0.1617
     15 C         140.5793  144.2244  160.2278 C.2     1  UNL1        0.0396
     16 C         139.7257  140.0343  164.6024 C.ar    1  UNL1       -0.0019
     17 C         138.5991  140.3167  165.5516 C.ar    1  UNL1       -0.0003
     18 C         137.9021  139.1847  166.2464 C.ar    1  UNL1        0.0294
     19 C         138.3317  137.7703  165.9919 C.ar    1  UNL1        0.1401
     20 F         137.6347  136.6382  166.6867 F       1  UNL1       -0.2042
     21 C         139.4583  137.4878  165.0427 C.ar    1  UNL1        0.0294
     22 C         140.1553  138.6198  164.3479 C.ar    1  UNL1       -0.0003
     23 C         141.9050  142.7017  168.9949 C.ar    1  UNL1        0.0141
     24 C         143.0008  142.1808  168.1129 C.ar    1  UNL1        0.0025
     25 C         142.7698  142.0321  166.6383 C.ar    1  UNL1        0.0164
     26 C         141.4431  142.4044  166.0457 C.ar    1  UNL1        0.0693
     27 C         140.3473  142.9253  166.9277 C.ar    1  UNL1        0.0164
     28 C         140.5782  143.0739  168.4022 C.ar    1  UNL1        0.0025
     29 O         141.2966  142.0758  171.4420 O.co2   1  UNL1       -0.5446
     30 C         142.1360  142.8503  170.4695 C.2     1  UNL1        0.0729
     31 O         143.2063  143.7735  170.9717 O.co2   1  UNL1       -0.5446
@<TRIPOS>UNITY_ATOM_ATTR
29 1
charge -1
@<TRIPOS>BOND
     1    29    30   ar
     2    30    31   ar
     3    30    23    1
     4    23    24   ar
     5    24    25   ar
     6    25    26   ar
     7    26     1    1
     8     1     2    1
     9     2     3    2
    10     3     6    1
    11     6     7    2
    12     7     8    1
    13     8     9    1
    14     9    10    2
    15    10    11    1
    16    11    12    2
    17    11    13    1
    18    13    14    1
    19    14    15    2
    20     3     4    1
    21     4     5    1
    22     5    16    1
    23    16    17   ar
    24    17    18   ar
    25    18    19   ar
    26    19    20    1
    27    19    21   ar
    28    21    22   ar
    29    26    27   ar
    30    27    28   ar
    31    28    23   ar
    32     5     1    1
    33    22    16   ar
    34    15     6    1
    35    14     9    1
@<TRIPOS>MOLECULE
*****
 31 35 0 0 0
SMALL
GASTEIGER

@<TRIPOS>ATOM
      1 N         140.6875  142.3697  164.3973 N.pl3   1  UNL1       -0.2090
      2 N         140.9686  143.3644  163.3103 N.2     1  UNL1       -0.1821
      3 C         140.2940  142.8864  162.0588 C.2     1  UNL1        0.0783
      4 C         139.5959  141.5963  162.3723 C.3     1  UNL1        0.0737
      5 C         139.8391  141.2769  163.8175 C.3     1  UNL1        0.1244
      6 C         140.3139  143.5773  160.7274 C.2     1  UNL1        0.0143
      7 C         141.1292  144.8223  160.5406 C.2     1  UNL1       -0.0186
      8 C         141.1491  145.5131  159.2093 C.3     1  UNL1        0.0725
      9 C         140.3536  144.9588  158.0648 C.2     1  UNL1        0.0933
     10 N         140.1797  145.4185  156.6476 N.am    1  UNL1       -0.1431
     11 C         139.2569  144.4575  155.9585 C.2     1  UNL1        0.4298
     12 O         138.8091  144.5363  154.5290 O.2     1  UNL1       -0.2238
     13 O         138.8605  143.4039  156.9498 O.3     1  UNL1       -0.4079
     14 C         139.5383  143.7137  158.2516 C.2     1  UNL1        0.1617
     15 C         139.5184  143.0229  159.5829 C.2     1  UNL1        0.0396
     16 C         139.3243  140.0757  164.5538 C.ar    1  UNL1       -0.0019
     17 C         139.7780  138.7019  164.1578 C.ar    1  UNL1       -0.0003
     18 C         139.2632  137.5008  164.8940 C.ar    1  UNL1        0.0294
     19 C         138.2947  137.6734  166.0264 C.ar    1  UNL1        0.1401
     20 F         137.7800  136.4722  166.7626 F       1  UNL1       -0.2042
     21 C         137.8410  139.0472  166.4224 C.ar    1  UNL1        0.0294
     22 C         138.3558  140.2484  165.6861 C.ar    1  UNL1       -0.0003
     23 C         142.1352  142.6200  168.6507 C.ar    1  UNL1        0.0141
     24 C         140.7126  142.9631  168.3212 C.ar    1  UNL1        0.0025
     25 C         140.2301  142.8797  166.9034 C.ar    1  UNL1        0.0164
     26 C         141.1701  142.4532  165.8151 C.ar    1  UNL1        0.0693
     27 C         142.5926  142.1100  166.1446 C.ar    1  UNL1        0.0164
     28 C         143.0752  142.1934  167.5623 C.ar    1  UNL1        0.0025
     29 O         144.0287  143.1230  170.3571 O.co2   1  UNL1       -0.5446
     30 C         142.6177  142.7034  170.0685 C.2     1  UNL1        0.0729
     31 O         141.6894  142.3672  171.1977 O.co2   1  UNL1       -0.5446
@<TRIPOS>UNITY_ATOM_ATTR
29 1
charge -1
@<TRIPOS>BOND
     1    29    30   ar
     2    30    31   ar
     3    30    23    1
     4    23    24   ar
     5    24    25   ar
     6    25    26   ar
     7    26     1    1
     8     1     2    1
     9     2     3    2
    10     3     6    1
    11     6     7    2
    12     7     8    1
    13     8     9    1
    14     9    10    2
    15    10    11    1
    16    11    12    2
    17    11    13    1
    18    13    14    1
    19    14    15    2
    20     3     4    1
    21     4     5    1
    22     5    16    1
    23    16    17   ar
    24    17    18   ar
    25    18    19   ar
    26    19    20    1
    27    19    21   ar
    28    21    22   ar
    29    26    27   ar
    30    27    28   ar
    31    28    23   ar
    32     5     1    1
    33    22    16   ar
    34    15     6    1
    35    14     9    1
@<TRIPOS>MOLECULE
*****
 31 35 0 0 0
SMALL
GASTEIGER

@<TRIPOS>ATOM
      1 N         141.6982  141.4272  164.7747 N.pl3   1  UNL1       -0.2090
      2 N         142.4799  142.0558  163.6594 N.2     1  UNL1       -0.1821
      3 C         142.0776  141.3882  162.3778 C.2     1  UNL1        0.0783
      4 C         141.0473  140.3471  162.7010 C.3     1  UNL1        0.0737
      5 C         140.8128  140.3711  164.1824 C.3     1  UNL1        0.1244
      6 C         142.6119  141.7061  161.0126 C.2     1  UNL1        0.0143
      7 C         142.4157  143.0744  160.4303 C.2     1  UNL1       -0.0186
      8 C         142.9499  143.3921  159.0652 C.3     1  UNL1        0.0725
      9 C         143.6803  142.3415  158.2824 C.2     1  UNL1        0.0933
     10 N         144.3141  142.3620  156.9229 N.am    1  UNL1       -0.1431
     11 C         144.9019  141.0064  156.6651 C.2     1  UNL1        0.4298
     12 O         145.6321  140.5832  155.4250 O.2     1  UNL1       -0.2238
     13 O         144.6315  140.1480  157.8652 O.3     1  UNL1       -0.4079
     14 C         143.8765  140.9732  158.8647 C.2     1  UNL1        0.1617
     15 C         143.3423  140.6555  160.2298 C.2     1  UNL1        0.0396
     16 C         139.8602  139.4933  164.9386 C.ar    1  UNL1       -0.0019
     17 C         139.8458  138.0139  164.6908 C.ar    1  UNL1       -0.0003
     18 C         138.8932  137.1361  165.4471 C.ar    1  UNL1        0.0294
     19 C         137.9551  137.7376  166.4511 C.ar    1  UNL1        0.1401
     20 F         137.0025  136.8597  167.2074 F       1  UNL1       -0.2042
     21 C         137.9695  139.2169  166.6989 C.ar    1  UNL1        0.0294
     22 C         138.9221  140.0948  165.9426 C.ar    1  UNL1       -0.0003
     23 C         141.9629  142.5181  169.1324 C.ar    1  UNL1        0.0141
     24 C         143.0294  141.6700  168.5055 C.ar    1  UNL1        0.0025
     25 C         142.9412  141.3063  167.0529 C.ar    1  UNL1        0.0164
     26 C         141.7865  141.7909  166.2273 C.ar    1  UNL1        0.0693
     27 C         140.7199  142.6390  166.8543 C.ar    1  UNL1        0.0164
     28 C         140.8080  143.0026  168.3067 C.ar    1  UNL1        0.0025
     29 O         141.1276  142.2383  171.5766 O.co2   1  UNL1       -0.5446
     30 C         142.0511  142.8817  170.5850 C.2     1  UNL1        0.0729
     31 O         143.0627  143.8887  171.0460 O.co2   1  UNL1       -0.5446
@<TRIPOS>UNITY_ATOM_ATTR
29 1
charge -1
@<TRIPOS>BOND
     1    29    30   ar
     2    30    31   ar
     3    30    23    1
     4    23    24   ar
     5    24    25   ar
     6    25    26   ar
     7    26     1    1
     8     1     2    1
     9     2     3    2
    10     3     6    1
    11     6     7    2
    12     7     8    1
    13     8     9    1
    14     9    10    2
    15    10    11    1
    16    11    12    2
    17    11    13    1
    18    13    14    1
    19    14    15    2
    20     3     4    1
    21     4     5    1
    22     5    16    1
    23    16    17   ar
    24    17    18   ar
    25    18    19   ar
    26    19    20    1
    27    19    21   ar
    28    21    22   ar
    29    26    27   ar
    30    27    28   ar
    31    28    23   ar
    32     5     1    1
    33    22    16   ar
    34    15     6    1
    35    14     9    1
@<TRIPOS>MOLECULE
*****
 31 35 0 0 0
SMALL
GASTEIGER

@<TRIPOS>ATOM
      1 N         140.5583  141.1521  164.6366 N.pl3   1  UNL1       -0.2090
      2 N         139.6311  141.7075  163.5965 N.2     1  UNL1       -0.1821
      3 C         140.1523  141.3052  162.2487 C.2     1  UNL1        0.0783
      4 C         141.4016  140.5013  162.4559 C.3     1  UNL1        0.0737
      5 C         141.6526  140.4067  163.9317 C.3     1  UNL1        0.1244
      6 C         139.5329  141.6470  160.9259 C.2     1  UNL1        0.0143
      7 C         139.8149  142.9740  160.2862 C.2     1  UNL1       -0.0186
      8 C         139.1956  143.3156  158.9634 C.3     1  UNL1        0.0725
      9 C         138.2942  142.3302  158.2805 C.2     1  UNL1        0.0933
     10 N         137.5463  142.3869  156.9814 N.am    1  UNL1       -0.1431
     11 C         136.8020  141.0948  156.8183 C.2     1  UNL1        0.4298
     12 O         135.9240  140.7231  155.6603 O.2     1  UNL1       -0.2238
     13 O         137.0900  140.2396  158.0166 O.3     1  UNL1       -0.4079
     14 C         138.0121  141.0032  158.9202 C.2     1  UNL1        0.1617
     15 C         138.6315  140.6615  160.2429 C.2     1  UNL1        0.0396
     16 C         142.7968  139.6921  164.5874 C.ar    1  UNL1       -0.0019
     17 C         142.5422  138.7710  165.7437 C.ar    1  UNL1       -0.0003
     18 C         143.6864  138.0564  166.3994 C.ar    1  UNL1        0.0294
     19 C         145.0853  138.2629  165.8989 C.ar    1  UNL1        0.1401
     20 F         146.2295  137.5483  166.5546 F       1  UNL1       -0.2042
     21 C         145.3399  139.1839  164.7426 C.ar    1  UNL1        0.0294
     22 C         144.1957  139.8985  164.0869 C.ar    1  UNL1       -0.0003
     23 C         140.1320  141.6373  169.0900 C.ar    1  UNL1        0.0141
     24 C         139.5343  140.4442  168.4050 C.ar    1  UNL1        0.0025
     25 C         139.6764  140.2825  166.9205 C.ar    1  UNL1        0.0164
     26 C         140.4162  141.3139  166.1211 C.ar    1  UNL1        0.0693
     27 C         141.0139  142.5069  166.8062 C.ar    1  UNL1        0.0164
     28 C         140.8718  142.6687  168.2906 C.ar    1  UNL1        0.0025
     29 O         140.3599  140.6704  171.4907 O.co2   1  UNL1       -0.5446
     30 C         139.9899  141.7990  170.5745 C.2     1  UNL1        0.0729
     31 O         139.4778  143.0893  171.1428 O.co2   1  UNL1       -0.5446
@<TRIPOS>UNITY_ATOM_ATTR
29 1
charge -1
@<TRIPOS>BOND
     1    29    30   ar
     2    30    31   ar
     3    30    23    1
     4    23    24   ar
     5    24    25   ar
     6    25    26   ar
     7    26     1    1
     8     1     2    1
     9     2     3    2
    10     3     6    1
    11     6     7    2
    12     7     8    1
    13     8     9    1
    14     9    10    2
    15    10    11    1
    16    11    12    2
    17    11    13    1
    18    13    14    1
    19    14    15    2
    20     3     4    1
    21     4     5    1
    22     5    16    1
    23    16    17   ar
    24    17    18   ar
    25    18    19   ar
    26    19    20    1
    27    19    21   ar
    28    21    22   ar
    29    26    27   ar
    30    27    28   ar
    31    28    23   ar
    32     5     1    1
    33    22    16   ar
    34    15     6    1
    35    14     9    1
@<TRIPOS>MOLECULE
*****
 31 35 0 0 0
SMALL
GASTEIGER

@<TRIPOS>ATOM
      1 N         141.1719  139.8175  163.6316 N.pl3   1  UNL1       -0.2090
      2 N         141.5458  138.8645  162.5353 N.2     1  UNL1       -0.1821
      3 C         140.9858  139.3951  161.2489 C.2     1  UNL1        0.0783
      4 C         140.2657  140.6760  161.5502 C.3     1  UNL1        0.0737
      5 C         140.3807  140.9371  163.0228 C.3     1  UNL1        0.1244
      6 C         141.1219  138.7568  159.8983 C.2     1  UNL1        0.0143
      7 C         142.4426  138.1932  159.4647 C.2     1  UNL1       -0.0186
      8 C         142.5787  137.5550  158.1141 C.3     1  UNL1        0.0725
      9 C         141.3940  137.4803  157.1971 C.2     1  UNL1        0.0933
     10 N         141.2264  136.9146  155.8179 N.am    1  UNL1       -0.1431
     11 C         139.8020  137.1286  155.3992 C.2     1  UNL1        0.4298
     12 O         139.1966  136.7170  154.0899 O.2     1  UNL1       -0.2238
     13 O         139.0894  137.8265  156.5195 O.3     1  UNL1       -0.4079
     14 C         140.0733  138.0439  157.6307 C.2     1  UNL1        0.1617
     15 C         139.9372  138.6821  158.9812 C.2     1  UNL1        0.0396
     16 C         139.8056  142.1115  163.7576 C.ar    1  UNL1       -0.0019
     17 C         140.7062  143.2126  164.2337 C.ar    1  UNL1       -0.0003
     18 C         140.1311  144.3870  164.9685 C.ar    1  UNL1        0.0294
     19 C         138.6554  144.4604  165.2271 C.ar    1  UNL1        0.1401
     20 F         138.0803  145.6348  165.9619 F       1  UNL1       -0.2042
     21 C         137.7548  143.3594  164.7510 C.ar    1  UNL1        0.0294
     22 C         138.3299  142.1849  164.0162 C.ar    1  UNL1       -0.0003
     23 C         142.2365  139.3924  167.9831 C.ar    1  UNL1        0.0141
     24 C         143.2499  139.0630  166.9275 C.ar    1  UNL1        0.0025
     25 C         142.8950  139.2047  165.4770 C.ar    1  UNL1        0.0164
     26 C         141.5268  139.6758  165.0822 C.ar    1  UNL1        0.0693
     27 C         140.5134  140.0051  166.1379 C.ar    1  UNL1        0.0164
     28 C         140.8682  139.8635  167.5883 C.ar    1  UNL1        0.0025
     29 O         143.1316  137.9500  169.9500 O.co2   1  UNL1       -0.5446
     30 C         142.5914  139.2507  169.4336 C.2     1  UNL1        0.0729
     31 O         142.4062  140.4096  170.3678 O.co2   1  UNL1       -0.5446
@<TRIPOS>UNITY_ATOM_ATTR
29 1
charge -1
@<TRIPOS>BOND
     1    29    30   ar
     2    30    31   ar
     3    30    23    1
     4    23    24   ar
     5    24    25   ar
     6    25    26   ar
     7    26     1    1
     8     1     2    1
     9     2     3    2
    10     3     6    1
    11     6     7    2
    12     7     8    1
    13     8     9    1
    14     9    10    2
    15    10    11    1
    16    11    12    2
    17    11    13    1
    18    13    14    1
    19    14    15    2
    20     3     4    1
    21     4     5    1
    22     5    16    1
    23    16    17   ar
    24    17    18   ar
    25    18    19   ar
    26    19    20    1
    27    19    21   ar
    28    21    22   ar
    29    26    27   ar
    30    27    28   ar
    31    28    23   ar
    32     5     1    1
    33    22    16   ar
    34    15     6    1
    35    14     9    1
@<TRIPOS>MOLECULE
*****
 31 35 0 0 0
SMALL
GASTEIGER

@<TRIPOS>ATOM
      1 N         140.4498  139.1204  162.1041 N.pl3   1  UNL1       -0.2090
      2 N         140.0409  138.4368  160.8331 N.2     1  UNL1       -0.1821
      3 C         140.9947  138.8557  159.7539 C.2     1  UNL1        0.0783
      4 C         141.9932  139.7981  160.3579 C.3     1  UNL1        0.0737
      5 C         141.6565  139.9617  161.8104 C.3     1  UNL1        0.1244
      6 C         140.9568  138.4103  158.3220 C.2     1  UNL1        0.0143
      7 C         142.2364  138.1853  157.5724 C.2     1  UNL1       -0.0186
      8 C         142.1984  137.7399  156.1406 C.3     1  UNL1        0.0725
      9 C         140.8808  137.5195  155.4584 C.2     1  UNL1        0.0933
     10 N         140.5319  137.0844  154.0658 N.am    1  UNL1       -0.1431
     11 C         139.0367  137.0405  153.9549 C.2     1  UNL1        0.4298
     12 O         138.2540  136.6561  152.7343 O.2     1  UNL1       -0.2238
     13 O         138.4615  137.4485  155.2788 O.3     1  UNL1       -0.4079
     14 C         139.6012  137.7445  156.2080 C.2     1  UNL1        0.1617
     15 C         139.6392  138.1899  157.6398 C.2     1  UNL1        0.0396
     16 C         142.3965  140.8165  162.7962 C.ar    1  UNL1       -0.0019
     17 C         142.1568  142.2968  162.8338 C.ar    1  UNL1       -0.0003
     18 C         142.8967  143.1516  163.8195 C.ar    1  UNL1        0.0294
     19 C         143.8764  142.5262  164.7677 C.ar    1  UNL1        0.1401
     20 F         144.6163  143.3810  165.7535 F       1  UNL1       -0.2042
     21 C         144.1161  141.0459  164.7301 C.ar    1  UNL1        0.0294
     22 C         143.3761  140.1911  163.7444 C.ar    1  UNL1       -0.0003
     23 C         138.4143  138.7179  166.0971 C.ar    1  UNL1        0.0141
     24 C         138.4952  140.0580  165.4283 C.ar    1  UNL1        0.0025
     25 C         139.1737  140.1922  164.0973 C.ar    1  UNL1        0.0164
     26 C         139.7713  138.9862  163.4351 C.ar    1  UNL1        0.0693
     27 C         139.6904  137.6461  164.1040 C.ar    1  UNL1        0.0164
     28 C         139.0119  137.5118  165.4350 C.ar    1  UNL1        0.0025
     29 O         138.2241  139.3791  168.6025 O.co2   1  UNL1       -0.5446
     30 C         137.7357  138.5837  167.4281 C.2     1  UNL1        0.0729
     31 O         136.5689  137.6543  167.5848 O.co2   1  UNL1       -0.5446
@<TRIPOS>UNITY_ATOM_ATTR
29 1
charge -1
@<TRIPOS>BOND
     1    29    30   ar
     2    30    31   ar
     3    30    23    1
     4    23    24   ar
     5    24    25   ar
     6    25    26   ar
     7    26     1    1
     8     1     2    1
     9     2     3    2
    10     3     6    1
    11     6     7    2
    12     7     8    1
    13     8     9    1
    14     9    10    2
    15    10    11    1
    16    11    12    2
    17    11    13    1
    18    13    14    1
    19    14    15    2
    20     3     4    1
    21     4     5    1
    22     5    16    1
    23    16    17   ar
    24    17    18   ar
    25    18    19   ar
    26    19    20    1
    27    19    21   ar
    28    21    22   ar
    29    26    27   ar
    30    27    28   ar
    31    28    23   ar
    32     5     1    1
    33    22    16   ar
    34    15     6    1
    35    14     9    1
@<TRIPOS>MOLECULE
*****
 31 35 0 0 0
SMALL
GASTEIGER

@<TRIPOS>ATOM
      1 N         139.2397  139.8084  161.3024 N.pl3   1  UNL1       -0.2090
      2 N         138.2542  139.8142  160.1716 N.2     1  UNL1       -0.1821
      3 C         138.9991  140.1326  158.9092 C.2     1  UNL1        0.0783
      4 C         140.4450  140.3236  159.2598 C.3     1  UNL1        0.0737
      5 C         140.5938  140.1232  160.7389 C.3     1  UNL1        0.1244
      6 C         138.4028  140.2410  157.5370 C.2     1  UNL1        0.0143
      7 C         139.2028  139.8291  156.3369 C.2     1  UNL1       -0.0186
      8 C         138.6065  139.9375  154.9649 C.3     1  UNL1        0.0725
      9 C         137.2102  140.4579  154.7929 C.2     1  UNL1        0.0933
     10 N         136.3633  140.6758  153.5741 N.am    1  UNL1       -0.1431
     11 C         135.0399  141.2224  154.0210 C.2     1  UNL1        0.4298
     12 O         133.8894  141.5854  153.1296 O.2     1  UNL1       -0.2238
     13 O         135.0689  141.3423  155.5160 O.3     1  UNL1       -0.4079
     14 C         136.4102  140.8698  155.9930 C.2     1  UNL1        0.1617
     15 C         137.0065  140.7613  157.3651 C.2     1  UNL1        0.0396
     16 C         141.8720  140.2206  161.5177 C.ar    1  UNL1       -0.0019
     17 C         142.2842  141.5301  162.1221 C.ar    1  UNL1       -0.0003
     18 C         143.5624  141.6274  162.9009 C.ar    1  UNL1        0.0294
     19 C         144.4285  140.4153  163.0753 C.ar    1  UNL1        0.1401
     20 F         145.7068  140.5126  163.8541 F       1  UNL1       -0.2042
     21 C         144.0164  139.1057  162.4709 C.ar    1  UNL1        0.0294
     22 C         142.7381  139.0084  161.6921 C.ar    1  UNL1       -0.0003
     23 C         138.2994  138.9903  165.6263 C.ar    1  UNL1        0.0141
     24 C         138.1090  140.3682  165.0652 C.ar    1  UNL1        0.0025
     25 C         138.4224  140.6409  163.6239 C.ar    1  UNL1        0.0164
     26 C         138.9263  139.5357  162.7438 C.ar    1  UNL1        0.0693
     27 C         139.1167  138.1577  163.3050 C.ar    1  UNL1        0.0164
     28 C         138.8033  137.8849  164.7462 C.ar    1  UNL1        0.0025
     29 O         136.9021  137.7453  167.4285 O.co2   1  UNL1       -0.5446
     30 C         137.9859  138.7175  167.0676 C.2     1  UNL1        0.0729
     31 O         138.7563  139.4170  168.1481 O.co2   1  UNL1       -0.5446
@<TRIPOS>UNITY_ATOM_ATTR
29 1
charge -1
@<TRIPOS>BOND
     1    29    30   ar
     2    30    31   ar
     3    30    23    1
     4    23    24   ar
     5    24    25   ar
     6    25    26   ar
     7    26     1    1
     8     1     2    1
     9     2     3    2
    10     3     6    1
    11     6     7    2
    12     7     8    1
    13     8     9    1
    14     9    10    2
    15    10    11    1
    16    11    12    2
    17    11    13    1
    18    13    14    1
    19    14    15    2
    20     3     4    1
    21     4     5    1
    22     5    16    1
    23    16    17   ar
    24    17    18   ar
    25    18    19   ar
    26    19    20    1
    27    19    21   ar
    28    21    22   ar
    29    26    27   ar
    30    27    28   ar
    31    28    23   ar
    32     5     1    1
    33    22    16   ar
    34    15     6    1
    35    14     9    1
@<TRIPOS>MOLECULE
*****
 31 35 0 0 0
SMALL
GASTEIGER

@<TRIPOS>ATOM
      1 N         140.2305  140.6711  162.0354 N.pl3   1  UNL1       -0.2090
      2 N         139.9775  140.0389  163.3719 N.2     1  UNL1       -0.1821
      3 C         140.0877  141.1078  164.4186 C.2     1  UNL1        0.0783
      4 C         140.4087  142.4006  163.7289 C.3     1  UNL1        0.0737
      5 C         140.4970  142.1308  162.2560 C.3     1  UNL1        0.1244
      6 C         139.9083  140.9173  165.8956 C.2     1  UNL1        0.0143
      7 C         139.0963  139.7659  166.4102 C.2     1  UNL1       -0.0186
      8 C         138.9169  139.5755  167.8872 C.3     1  UNL1        0.0725
      9 C         139.5497  140.5364  168.8496 C.2     1  UNL1        0.0933
     10 N         139.5477  140.6036  170.3481 N.am    1  UNL1       -0.1431
     11 C         140.3585  141.7965  170.7597 C.2     1  UNL1        0.4298
     12 O         140.6203  142.2414  172.1681 O.2     1  UNL1       -0.2238
     13 O         140.8617  142.4666  169.5155 O.3     1  UNL1       -0.4079
     14 C         140.3618  141.6878  168.3350 C.2     1  UNL1        0.1617
     15 C         140.5411  141.8782  166.8580 C.2     1  UNL1        0.0396
     16 C         140.7987  143.1428  161.1908 C.ar    1  UNL1       -0.0019
     17 C         141.9111  142.8959  160.2152 C.ar    1  UNL1       -0.0003
     18 C         142.2128  143.9079  159.1500 C.ar    1  UNL1        0.0294
     19 C         141.4022  145.1668  159.0603 C.ar    1  UNL1        0.1401
     20 F         141.7039  146.1788  157.9951 F       1  UNL1       -0.2042
     21 C         140.2898  145.4137  160.0359 C.ar    1  UNL1        0.0294
     22 C         139.9880  144.4016  161.1011 C.ar    1  UNL1       -0.0003
     23 C         140.1958  138.5598  158.0616 C.ar    1  UNL1        0.0141
     24 C         139.0507  139.4478  158.4491 C.ar    1  UNL1        0.0025
     25 C         139.0623  140.1516  159.7737 C.ar    1  UNL1        0.0164
     26 C         140.2189  139.9674  160.7108 C.ar    1  UNL1        0.0693
     27 C         141.3640  139.0793  160.3233 C.ar    1  UNL1        0.0164
     28 C         141.3526  138.3756  158.9988 C.ar    1  UNL1        0.0025
     29 O         138.8896  137.3654  156.1597 O.co2   1  UNL1       -0.5446
     30 C         140.1843  137.8560  156.7370 C.2     1  UNL1        0.0729
     31 O         141.4673  137.6429  155.9898 O.co2   1  UNL1       -0.5446
@<TRIPOS>UNITY_ATOM_ATTR
29 1
charge -1
@<TRIPOS>BOND
     1    29    30   ar
     2    30    31   ar
     3    30    23    1
     4    23    24   ar
     5    24    25   ar
     6    25    26   ar
     7    26     1    1
     8     1     2    1
     9     2     3    2
    10     3     6    1
    11     6     7    2
    12     7     8    1
    13     8     9    1
    14     9    10    2
    15    10    11    1
    16    11    12    2
    17    11    13    1
    18    13    14    1
    19    14    15    2
    20     3     4    1
    21     4     5    1
    22     5    16    1
    23    16    17   ar
    24    17    18   ar
    25    18    19   ar
    26    19    20    1
    27    19    21   ar
    28    21    22   ar
    29    26    27   ar
    30    27    28   ar
    31    28    23   ar
    32     5     1    1
    33    22    16   ar
    34    15     6    1
    35    14     9    1
@<TRIPOS>MOLECULE
*****
 31 35 0 0 0
SMALL
GASTEIGER

@<TRIPOS>ATOM
      1 N         140.4029  140.1964  162.0125 N.pl3   1  UNL1       -0.2090
      2 N         140.4076  139.4514  160.7107 N.2     1  UNL1       -0.1821
      3 C         139.5470  140.2064  159.7415 C.2     1  UNL1        0.0783
      4 C         139.0105  141.4181  160.4443 C.3     1  UNL1        0.0737
      5 C         139.5395  141.4120  161.8479 C.3     1  UNL1        0.1244
      6 C         139.2713  139.8180  158.3190 C.2     1  UNL1        0.0143
      7 C         138.4329  140.7060  157.4481 C.2     1  UNL1       -0.0186
      8 C         138.1573  140.3175  156.0258 C.3     1  UNL1        0.0725
      9 C         138.7200  139.0411  155.4744 C.2     1  UNL1        0.0933
     10 N         138.6185  138.4013  154.1214 N.am    1  UNL1       -0.1431
     11 C         139.3942  137.1179  154.1562 C.2     1  UNL1        0.4298
     12 O         139.5599  136.1566  153.0166 O.2     1  UNL1       -0.2238
     13 O         139.9750  136.9645  155.5307 O.3     1  UNL1       -0.4079
     14 C         139.5584  138.1531  156.3453 C.2     1  UNL1        0.1617
     15 C         139.8340  138.5415  157.7676 C.2     1  UNL1        0.0396
     16 C         139.2550  142.4407  162.9019 C.ar    1  UNL1       -0.0019
     17 C         137.8959  142.5122  163.5327 C.ar    1  UNL1       -0.0003
     18 C         137.6114  143.5409  164.5866 C.ar    1  UNL1        0.0294
     19 C         138.6860  144.4981  165.0098 C.ar    1  UNL1        0.1401
     20 F         138.4015  145.5267  166.0637 F       1  UNL1       -0.2042
     21 C         140.0451  144.4265  164.3790 C.ar    1  UNL1        0.0294
     22 C         140.3296  143.3978  163.3251 C.ar    1  UNL1       -0.0003
     23 C         142.5945  138.9959  165.7549 C.ar    1  UNL1        0.0141
     24 C         141.0990  138.8966  165.6971 C.ar    1  UNL1        0.0025
     25 C         140.3684  139.2967  164.4496 C.ar    1  UNL1        0.0164
     26 C         141.1335  139.7963  163.2600 C.ar    1  UNL1        0.0693
     27 C         142.6291  139.8956  163.3179 C.ar    1  UNL1        0.0164
     28 C         143.3596  139.4955  164.5652 C.ar    1  UNL1        0.0025
     29 O         142.9885  139.2480  168.3106 O.co2   1  UNL1       -0.5446
     30 C         143.3251  138.5957  167.0024 C.2     1  UNL1        0.0729
     31 O         144.3921  137.5433  166.9417 O.co2   1  UNL1       -0.5446
@<TRIPOS>UNITY_ATOM_ATTR
29 1
charge -1
@<TRIPOS>BOND
     1    29    30   ar
     2    30    31   ar
     3    30    23    1
     4    23    24   ar
     5    24    25   ar
     6    25    26   ar
     7    26     1    1
     8     1     2    1
     9     2     3    2
    10     3     6    1
    11     6     7    2
    12     7     8    1
    13     8     9    1
    14     9    10    2
    15    10    11    1
    16    11    12    2
    17    11    13    1
    18    13    14    1
    19    14    15    2
    20     3     4    1
    21     4     5    1
    22     5    16    1
    23    16    17   ar
    24    17    18   ar
    25    18    19   ar
    26    19    20    1
    27    19    21   ar
    28    21    22   ar
    29    26    27   ar
    30    27    28   ar
    31    28    23   ar
    32     5     1    1
    33    22    16   ar
    34    15     6    1
    35    14     9    1
