@<TRIPOS>MOLECULE
*****
 34 37 0 0 0
SMALL
GASTEIGER

@<TRIPOS>ATOM
      1 C         141.5103  140.7649  167.0598 C.ar    1  UNL1        0.0208
      2 C         140.5310  141.0413  165.9578 C.ar    1  UNL1        0.0219
      3 C         140.5521  139.8744  165.0154 C.ar    1  UNL1        0.0961
      4 C         139.7959  139.5914  163.7513 C.ar    1  UNL1        0.0685
      5 C         140.0321  138.3107  163.0069 C.ar    1  UNL1        0.0885
      6 C         141.0245  137.3132  163.5265 C.ar    1  UNL1        0.1263
      7 N         141.7807  137.5963  164.7905 N.ar    1  UNL1       -0.1633
      8 N         141.5445  138.8769  165.5350 N.ar    1  UNL1       -0.2270
      9 C         142.1368  139.4272  166.7985 C.ar    1  UNL1        0.1004
     10 C         140.0955  144.6153  170.2492 C.3     1  UNL1        0.0521
     11 C         141.1032  143.5929  169.8142 C.ar    1  UNL1        0.0594
     12 C         140.8030  142.6901  168.6545 C.ar    1  UNL1        0.0148
     13 C         141.8106  141.6676  168.2194 C.ar    1  UNL1        0.0043
     14 C         143.1185  141.5480  168.9441 C.ar    1  UNL1        0.0207
     15 C         143.4187  142.4508  170.1037 C.ar    1  UNL1        0.0984
     16 N         142.4111  143.4732  170.5388 N.ar    1  UNL1       -0.2481
     17 C         139.2758  138.0276  161.7427 C.2     1  UNL1        0.2456
     18 N         137.8647  137.5234  161.8098 N.am    1  UNL1       -0.3252
     19 O         139.9307  138.2488  160.4114 O.2     1  UNL1       -0.2703
     20 H         137.4349  137.3782  162.6836 H       1  UNL1        0.1453
     21 H         137.3683  137.3376  160.9801 H       1  UNL1        0.1453
     22 N         138.8034  140.5889  163.2317 N.pl3   1  UNL1       -0.3327
     23 H         137.8384  140.4149  163.3196 H       1  UNL1        0.1468
     24 C         139.2813  141.8516  162.5781 C.3     1  UNL1        0.0702
     25 C         140.4723  141.9810  161.6755 C.3     1  UNL1        0.0208
     26 C         140.5792  143.4159  161.2519 C.3     1  UNL1        0.0160
     27 C         139.4543  144.1734  161.8927 C.3     1  UNL1        0.0404
     28 C         140.0471  145.3500  161.1757 C.3     1  UNL1        0.0156
     29 N         138.4532  145.1769  162.3835 N.3     1  UNL1       -0.3231
     30 C         138.6521  143.2066  162.7123 C.3     1  UNL1        0.0282
     31 C         137.8187  144.4122  163.0319 C.3     1  UNL1        0.0029
     32 C         137.6757  142.4918  163.5987 C.3     1  UNL1        0.0029
     33 H         138.6760  146.0952  161.9995 H       1  UNL1        0.1188
     34 H         138.4843  145.2177  163.4023 H       1  UNL1        0.1188
@<TRIPOS>BOND
     1    10    11    1
     2    11    12   ar
     3    12    13   ar
     4    13     1    1
     5     1     2   ar
     6     2     3   ar
     7     3     4   ar
     8     4    22    1
     9    24    22    1
    10    24    25    1
    11    25    26    1
    12    26    27    1
    13    27    28    1
    14    27    29    1
    15    27    30    1
    16    30    31    1
    17    30    32    1
    18     4     5   ar
    19     5    17    1
    20    17    18   am
    21    17    19    2
    22     5     6   ar
    23     6     7   ar
    24     7     8   ar
    25     8     9   ar
    26    13    14   ar
    27    14    15   ar
    28    15    16   ar
    29    16    11   ar
    30     9     1   ar
    31     8     3   ar
    32    30    24    1
    33    22    23    1
    34    29    33    1
    35    29    34    1
    36    18    20    1
    37    18    21    1
@<TRIPOS>MOLECULE
*****
 34 37 0 0 0
SMALL
GASTEIGER

@<TRIPOS>ATOM
      1 C         140.0729  140.4398  167.1603 C.ar    1  UNL1        0.0208
      2 C         140.7033  140.9667  165.9054 C.ar    1  UNL1        0.0219
      3 C         140.2968  140.0726  164.7718 C.ar    1  UNL1        0.0961
      4 C         140.6156  140.1019  163.3063 C.ar    1  UNL1        0.0685
      5 C         140.0527  139.0517  162.3952 C.ar    1  UNL1        0.0885
      6 C         139.1711  137.9721  162.9494 C.ar    1  UNL1        0.1263
      7 N         138.8524  137.9427  164.4149 N.ar    1  UNL1       -0.1633
      8 N         139.4152  138.9930  165.3260 N.ar    1  UNL1       -0.2270
      9 C         139.2768  139.2199  166.8023 C.ar    1  UNL1        0.1004
     10 C         140.3558  144.5969  170.2649 C.3     1  UNL1        0.0521
     11 C         140.3553  143.1077  170.0848 C.ar    1  UNL1        0.0594
     12 C         140.2144  142.5183  168.7127 C.ar    1  UNL1        0.0148
     13 C         140.2138  141.0291  168.5325 C.ar    1  UNL1        0.0043
     14 C         140.3542  140.1294  169.7244 C.ar    1  UNL1        0.0207
     15 C         140.4951  140.7189  171.0966 C.ar    1  UNL1        0.0984
     16 N         140.4956  142.2080  171.2768 N.ar    1  UNL1       -0.2481
     17 C         140.3715  139.0810  160.9297 C.2     1  UNL1        0.2456
     18 N         139.2732  138.9252  159.9199 N.am    1  UNL1       -0.3252
     19 O         141.7885  139.2663  160.4739 O.2     1  UNL1       -0.2703
     20 H         138.3432  138.8036  160.2191 H       1  UNL1        0.1453
     21 H         139.4825  138.9444  158.9581 H       1  UNL1        0.1453
     22 N         141.4973  141.1815  162.7520 N.pl3   1  UNL1       -0.3327
     23 H         142.4550  141.0077  162.6047 H       1  UNL1        0.1468
     24 C         140.9195  142.5259  162.4220 C.3     1  UNL1        0.0702
     25 C         139.7215  142.7824  161.5566 C.3     1  UNL1        0.0208
     26 C         139.4999  144.2648  161.4992 C.3     1  UNL1        0.0160
     27 C         140.5610  144.9245  162.3292 C.3     1  UNL1        0.0404
     28 C         139.8755  146.1926  161.9143 C.3     1  UNL1        0.0156
     29 N         141.4787  145.8493  163.0724 N.3     1  UNL1       -0.3231
     30 C         141.4384  143.8498  162.8995 C.3     1  UNL1        0.0282
     31 C         142.1728  144.9993  163.5235 C.3     1  UNL1        0.0029
     32 C         142.4692  143.0154  163.6002 C.3     1  UNL1        0.0029
     33 H         141.1830  146.8141  162.9233 H       1  UNL1        0.1188
     34 H         142.4322  145.7293  162.7306 H       1  UNL1        0.1188
@<TRIPOS>BOND
     1    10    11    1
     2    11    12   ar
     3    12    13   ar
     4    13     1    1
     5     1     2   ar
     6     2     3   ar
     7     3     4   ar
     8     4    22    1
     9    24    22    1
    10    24    25    1
    11    25    26    1
    12    26    27    1
    13    27    28    1
    14    27    29    1
    15    27    30    1
    16    30    31    1
    17    30    32    1
    18     4     5   ar
    19     5    17    1
    20    17    18   am
    21    17    19    2
    22     5     6   ar
    23     6     7   ar
    24     7     8   ar
    25     8     9   ar
    26    13    14   ar
    27    14    15   ar
    28    15    16   ar
    29    16    11   ar
    30     9     1   ar
    31     8     3   ar
    32    30    24    1
    33    22    23    1
    34    29    33    1
    35    29    34    1
    36    18    20    1
    37    18    21    1
@<TRIPOS>MOLECULE
*****
 34 37 0 0 0
SMALL
GASTEIGER

@<TRIPOS>ATOM
      1 C         140.1421  140.2156  167.4338 C.ar    1  UNL1        0.0208
      2 C         141.0565  140.3843  166.2567 C.ar    1  UNL1        0.0219
      3 C         140.5360  139.5295  165.1393 C.ar    1  UNL1        0.0961
      4 C         141.0279  139.2959  163.7417 C.ar    1  UNL1        0.0685
      5 C         140.2838  138.3651  162.8305 C.ar    1  UNL1        0.0885
      6 C         139.0479  137.6682  163.3170 C.ar    1  UNL1        0.1263
      7 N         138.5561  137.9018  164.7147 N.ar    1  UNL1       -0.1633
      8 N         139.3001  138.8325  165.6258 N.ar    1  UNL1       -0.2270
      9 C         139.0567  139.2565  167.0439 C.ar    1  UNL1        0.1004
     10 C         140.3368  144.5526  170.2890 C.3     1  UNL1        0.0521
     11 C         140.3850  143.0564  170.1944 C.ar    1  UNL1        0.0594
     12 C         140.2395  142.3840  168.8614 C.ar    1  UNL1        0.0148
     13 C         140.2877  140.8878  168.7668 C.ar    1  UNL1        0.0043
     14 C         140.4816  140.0639  170.0051 C.ar    1  UNL1        0.0207
     15 C         140.6271  140.7362  171.3381 C.ar    1  UNL1        0.0984
     16 N         140.5789  142.2324  171.4328 N.ar    1  UNL1       -0.2481
     17 C         140.7757  138.1314  161.4328 C.2     1  UNL1        0.2456
     18 N         139.8556  138.3472  160.2680 N.am    1  UNL1       -0.3252
     19 O         142.1877  137.6819  161.2000 O.2     1  UNL1       -0.2703
     20 H         138.9288  138.6422  160.4208 H       1  UNL1        0.1453
     21 H         140.1784  138.1938  159.3506 H       1  UNL1        0.1453
     22 N         142.2639  139.9928  163.2551 N.pl3   1  UNL1       -0.3327
     23 H         143.0131  139.4688  162.8901 H       1  UNL1        0.1468
     24 C         142.3581  141.4883  163.3246 C.3     1  UNL1        0.0702
     25 C         141.3702  142.4615  162.7529 C.3     1  UNL1        0.0208
     26 C         141.8583  143.8477  163.0530 C.3     1  UNL1        0.0160
     27 C         143.1479  143.7312  163.8102 C.3     1  UNL1        0.0404
     28 C         143.1069  145.2306  163.8002 C.3     1  UNL1        0.0156
     29 N         144.4289  143.9282  164.5652 N.3     1  UNL1       -0.3231
     30 C         143.4568  142.2730  163.9780 C.3     1  UNL1        0.0282
     31 C         144.6733  142.7748  164.6981 C.3     1  UNL1        0.0029
     32 C         144.0200  140.9197  164.2964 C.3     1  UNL1        0.0029
     33 H         144.6065  144.9262  164.6791 H       1  UNL1        0.1188
     34 H         145.1978  143.5030  164.0472 H       1  UNL1        0.1188
@<TRIPOS>BOND
     1    10    11    1
     2    11    12   ar
     3    12    13   ar
     4    13     1    1
     5     1     2   ar
     6     2     3   ar
     7     3     4   ar
     8     4    22    1
     9    24    22    1
    10    24    25    1
    11    25    26    1
    12    26    27    1
    13    27    28    1
    14    27    29    1
    15    27    30    1
    16    30    31    1
    17    30    32    1
    18     4     5   ar
    19     5    17    1
    20    17    18   am
    21    17    19    2
    22     5     6   ar
    23     6     7   ar
    24     7     8   ar
    25     8     9   ar
    26    13    14   ar
    27    14    15   ar
    28    15    16   ar
    29    16    11   ar
    30     9     1   ar
    31     8     3   ar
    32    30    24    1
    33    22    23    1
    34    29    33    1
    35    29    34    1
    36    18    20    1
    37    18    21    1
@<TRIPOS>MOLECULE
*****
 34 37 0 0 0
SMALL
GASTEIGER

@<TRIPOS>ATOM
      1 C         141.2751  140.6407  166.6756 C.ar    1  UNL1        0.0208
      2 C         140.7335  140.9033  165.3017 C.ar    1  UNL1        0.0219
      3 C         141.6586  140.2641  164.3088 C.ar    1  UNL1        0.0961
      4 C         141.6310  140.1960  162.8107 C.ar    1  UNL1        0.0685
      5 C         142.7168  139.4702  162.0728 C.ar    1  UNL1        0.0885
      6 C         143.8301  138.8127  162.8331 C.ar    1  UNL1        0.1263
      7 N         143.8577  138.8809  164.3313 N.ar    1  UNL1       -0.1633
      8 N         142.7720  139.6066  165.0692 N.ar    1  UNL1       -0.2270
      9 C         142.5350  139.8394  166.5319 C.ar    1  UNL1        0.1004
     10 C         140.3993  144.3991  170.1552 C.3     1  UNL1        0.0521
     11 C         140.2263  142.9783  169.7064 C.ar    1  UNL1        0.0594
     12 C         140.8372  142.5199  168.4154 C.ar    1  UNL1        0.0148
     13 C         140.6642  141.0991  167.9666 C.ar    1  UNL1        0.0043
     14 C         139.8803  140.1367  168.8087 C.ar    1  UNL1        0.0207
     15 C         139.2694  140.5951  170.0998 C.ar    1  UNL1        0.0984
     16 N         139.4424  142.0159  170.5486 N.ar    1  UNL1       -0.2481
     17 C         142.6892  139.4020  160.5745 C.2     1  UNL1        0.2456
     18 N         143.9740  139.3915  159.8004 N.am    1  UNL1       -0.3252
     19 O         141.3768  139.3443  159.8504 O.2     1  UNL1       -0.2703
     20 H         144.8354  139.4294  160.2757 H       1  UNL1        0.1453
     21 H         143.9559  139.3468  158.8171 H       1  UNL1        0.1453
     22 N         140.5176  140.8535  162.0502 N.pl3   1  UNL1       -0.3327
     23 H         139.8241  140.3036  161.6191 H       1  UNL1        0.1468
     24 C         140.4610  142.3488  161.9468 C.3     1  UNL1        0.0702
     25 C         141.5909  143.2480  161.5412 C.3     1  UNL1        0.0208
     26 C         141.0927  144.6624  161.5746 C.3     1  UNL1        0.0160
     27 C         139.6548  144.6374  162.0008 C.3     1  UNL1        0.0404
     28 C         139.7487  146.1272  161.8534 C.3     1  UNL1        0.0156
     29 N         138.2365  144.9239  162.3963 N.3     1  UNL1       -0.3231
     30 C         139.2643  143.2076  162.2309 C.3     1  UNL1        0.0282
     31 C         137.9276  143.7929  162.5783 C.3     1  UNL1        0.0029
     32 C         138.5944  141.9000  162.5336 C.3     1  UNL1        0.0029
     33 H         138.0712  145.9299  162.3642 H       1  UNL1        0.1188
     34 H         138.0719  144.5822  163.3432 H       1  UNL1        0.1188
@<TRIPOS>BOND
     1    10    11    1
     2    11    12   ar
     3    12    13   ar
     4    13     1    1
     5     1     2   ar
     6     2     3   ar
     7     3     4   ar
     8     4    22    1
     9    24    22    1
    10    24    25    1
    11    25    26    1
    12    26    27    1
    13    27    28    1
    14    27    29    1
    15    27    30    1
    16    30    31    1
    17    30    32    1
    18     4     5   ar
    19     5    17    1
    20    17    18   am
    21    17    19    2
    22     5     6   ar
    23     6     7   ar
    24     7     8   ar
    25     8     9   ar
    26    13    14   ar
    27    14    15   ar
    28    15    16   ar
    29    16    11   ar
    30     9     1   ar
    31     8     3   ar
    32    30    24    1
    33    22    23    1
    34    29    33    1
    35    29    34    1
    36    18    20    1
    37    18    21    1
@<TRIPOS>MOLECULE
*****
 34 37 0 0 0
SMALL
GASTEIGER

@<TRIPOS>ATOM
      1 C         141.6578  142.4280  167.0029 C.ar    1  UNL1        0.0208
      2 C         141.0943  142.6648  165.6331 C.ar    1  UNL1        0.0219
      3 C         142.2380  142.7160  164.6639 C.ar    1  UNL1        0.0961
      4 C         142.2868  142.9229  163.1791 C.ar    1  UNL1        0.0685
      5 C         143.6060  142.9246  162.4651 C.ar    1  UNL1        0.0885
      6 C         144.8762  142.7194  163.2358 C.ar    1  UNL1        0.1263
      7 N         144.8275  142.5125  164.7207 N.ar    1  UNL1       -0.1633
      8 N         143.5083  142.5108  165.4347 N.ar    1  UNL1       -0.2270
      9 C         143.1498  142.3328  166.8803 C.ar    1  UNL1        0.1004
     10 C         138.3683  139.7691  170.0211 C.3     1  UNL1        0.0521
     11 C         139.2233  140.9781  169.7816 C.ar    1  UNL1        0.0594
     12 C         140.0131  141.0986  168.5121 C.ar    1  UNL1        0.0148
     13 C         140.8681  142.3076  168.2725 C.ar    1  UNL1        0.0043
     14 C         140.9333  143.3961  169.3025 C.ar    1  UNL1        0.0207
     15 C         140.1435  143.2755  170.5720 C.ar    1  UNL1        0.0984
     16 N         139.2885  142.0666  170.8116 N.ar    1  UNL1       -0.2481
     17 C         143.6548  143.1315  160.9801 C.2     1  UNL1        0.2456
     18 N         144.5968  142.3206  160.1404 N.am    1  UNL1       -0.3252
     19 O         142.7616  144.1493  160.3350 O.2     1  UNL1       -0.2703
     20 H         145.1830  141.6526  160.5639 H       1  UNL1        0.1453
     21 H         144.6288  142.4564  159.1659 H       1  UNL1        0.1453
     22 N         141.0164  143.1281  162.4082 N.pl3   1  UNL1       -0.3327
     23 H         140.7335  144.0375  162.1586 H       1  UNL1        0.1468
     24 C         140.1772  141.9478  162.0176 C.3     1  UNL1        0.0702
     25 C         140.6416  140.7569  161.2327 C.3     1  UNL1        0.0208
     26 C         139.4777  139.8242  161.0733 C.3     1  UNL1        0.0160
     27 C         138.2940  140.4387  161.7598 C.3     1  UNL1        0.0404
     28 C         137.5831  139.2006  161.2996 C.3     1  UNL1        0.0156
     29 N         136.9617  140.7943  162.3501 N.3     1  UNL1       -0.3231
     30 C         138.7263  141.7511  162.3434 C.3     1  UNL1        0.0282
     31 C         137.3036  141.8324  162.8117 C.3     1  UNL1        0.0029
     32 C         138.8612  143.0805  163.0249 C.3     1  UNL1        0.0029
     33 H         136.2912  140.0528  162.1474 H       1  UNL1        0.1188
     34 H         136.6328  141.6703  161.9441 H       1  UNL1        0.1188
@<TRIPOS>BOND
     1    10    11    1
     2    11    12   ar
     3    12    13   ar
     4    13     1    1
     5     1     2   ar
     6     2     3   ar
     7     3     4   ar
     8     4    22    1
     9    24    22    1
    10    24    25    1
    11    25    26    1
    12    26    27    1
    13    27    28    1
    14    27    29    1
    15    27    30    1
    16    30    31    1
    17    30    32    1
    18     4     5   ar
    19     5    17    1
    20    17    18   am
    21    17    19    2
    22     5     6   ar
    23     6     7   ar
    24     7     8   ar
    25     8     9   ar
    26    13    14   ar
    27    14    15   ar
    28    15    16   ar
    29    16    11   ar
    30     9     1   ar
    31     8     3   ar
    32    30    24    1
    33    22    23    1
    34    29    33    1
    35    29    34    1
    36    18    20    1
    37    18    21    1
@<TRIPOS>MOLECULE
*****
 34 37 0 0 0
SMALL
GASTEIGER

@<TRIPOS>ATOM
      1 C         140.5459  142.8810  166.8253 C.ar    1  UNL1        0.0208
      2 C         141.4753  142.7903  165.6514 C.ar    1  UNL1        0.0219
      3 C         140.8337  143.5003  164.4963 C.ar    1  UNL1        0.0961
      4 C         141.2855  143.7330  163.0851 C.ar    1  UNL1        0.0685
      5 C         140.4114  144.4954  162.1338 C.ar    1  UNL1        0.0885
      6 C         139.0856  145.0250  162.5938 C.ar    1  UNL1        0.1263
      7 N         138.6338  144.7922  164.0051 N.ar    1  UNL1       -0.1633
      8 N         139.5078  144.0299  164.9563 N.ar    1  UNL1       -0.2270
      9 C         139.3300  143.6472  166.3957 C.ar    1  UNL1        0.1004
     10 C         142.4227  139.0886  169.8412 C.3     1  UNL1        0.0521
     11 C         141.7281  140.4103  169.6973 C.ar    1  UNL1        0.0594
     12 C         141.4843  140.9849  168.3333 C.ar    1  UNL1        0.0148
     13 C         140.7897  142.3065  168.1893 C.ar    1  UNL1        0.0043
     14 C         140.3389  143.0537  169.4093 C.ar    1  UNL1        0.0207
     15 C         140.5827  142.4791  170.7733 C.ar    1  UNL1        0.0984
     16 N         141.2773  141.1574  170.9173 N.ar    1  UNL1       -0.2481
     17 C         140.8632  144.7282  160.7225 C.2     1  UNL1        0.2456
     18 N         139.8534  144.8195  159.6171 N.am    1  UNL1       -0.3252
     19 O         142.3249  144.8696  160.4166 O.2     1  UNL1       -0.2703
     20 H         138.8941  144.7266  159.8179 H       1  UNL1        0.1453
     21 H         140.1499  144.9722  158.6908 H       1  UNL1        0.1453
     22 N         142.6114  143.2035  162.6250 N.pl3   1  UNL1       -0.3327
     23 H         143.3756  143.8150  162.5184 H       1  UNL1        0.1468
     24 C         142.7729  141.7422  162.3273 C.3     1  UNL1        0.0702
     25 C         141.8940  140.9229  161.4294 C.3     1  UNL1        0.0208
     26 C         142.4196  139.5181  161.4224 C.3     1  UNL1        0.0160
     27 C         143.6233  139.4691  162.3161 C.3     1  UNL1        0.0404
     28 C         143.6581  138.0209  161.9266 C.3     1  UNL1        0.0156
     29 N         144.8343  139.1173  163.1283 N.3     1  UNL1       -0.3231
     30 C         143.8417  140.8436  162.8753 C.3     1  UNL1        0.0282
     31 C         145.0071  140.2045  163.5707 C.3     1  UNL1        0.0029
     32 C         144.3037  142.0846  163.5799 C.3     1  UNL1        0.0029
     33 H         145.0496  138.1277  163.0066 H       1  UNL1        0.1188
     34 H         144.6496  139.3064  164.1134 H       1  UNL1        0.1188
@<TRIPOS>BOND
     1    10    11    1
     2    11    12   ar
     3    12    13   ar
     4    13     1    1
     5     1     2   ar
     6     2     3   ar
     7     3     4   ar
     8     4    22    1
     9    24    22    1
    10    24    25    1
    11    25    26    1
    12    26    27    1
    13    27    28    1
    14    27    29    1
    15    27    30    1
    16    30    31    1
    17    30    32    1
    18     4     5   ar
    19     5    17    1
    20    17    18   am
    21    17    19    2
    22     5     6   ar
    23     6     7   ar
    24     7     8   ar
    25     8     9   ar
    26    13    14   ar
    27    14    15   ar
    28    15    16   ar
    29    16    11   ar
    30     9     1   ar
    31     8     3   ar
    32    30    24    1
    33    22    23    1
    34    29    33    1
    35    29    34    1
    36    18    20    1
    37    18    21    1
@<TRIPOS>MOLECULE
*****
 34 37 0 0 0
SMALL
GASTEIGER

@<TRIPOS>ATOM
      1 C         139.4174  140.0966  166.2776 C.ar    1  UNL1        0.0208
      2 C         139.4723  140.9887  165.0729 C.ar    1  UNL1        0.0219
      3 C         139.2586  140.1380  163.8561 C.ar    1  UNL1        0.0961
      4 C         139.2101  140.4713  162.3944 C.ar    1  UNL1        0.0685
      5 C         138.9746  139.3866  161.3853 C.ar    1  UNL1        0.0885
      6 C         138.7876  137.9689  161.8379 C.ar    1  UNL1        0.1263
      7 N         138.8361  137.6356  163.2996 N.ar    1  UNL1       -0.1633
      8 N         139.0716  138.7202  164.3087 N.ar    1  UNL1       -0.2270
      9 C         139.1697  138.6946  165.8053 C.ar    1  UNL1        0.1004
     10 C         141.4882  143.3145  169.7928 C.3     1  UNL1        0.0521
     11 C         140.6168  142.1394  169.4618 C.ar    1  UNL1        0.0594
     12 C         140.4527  141.7055  168.0352 C.ar    1  UNL1        0.0148
     13 C         139.5813  140.5304  167.7041 C.ar    1  UNL1        0.0043
     14 C         138.8739  139.7890  168.7995 C.ar    1  UNL1        0.0207
     15 C         139.0379  140.2229  170.2260 C.ar    1  UNL1        0.0984
     16 N         139.9093  141.3980  170.5572 N.ar    1  UNL1       -0.2481
     17 C         138.9261  139.7199  159.9235 C.2     1  UNL1        0.2456
     18 N         139.6187  138.8357  158.9293 N.am    1  UNL1       -0.3252
     19 O         138.1849  140.9373  159.4561 O.2     1  UNL1       -0.2703
     20 H         140.1051  138.0366  159.2362 H       1  UNL1        0.1453
     21 H         139.5869  139.0544  157.9700 H       1  UNL1        0.1453
     22 N         139.3971  141.8891  161.9417 N.pl3   1  UNL1       -0.3327
     23 H         138.6926  142.3359  161.4190 H       1  UNL1        0.1468
     24 C         140.6575  142.6260  162.2855 C.3     1  UNL1        0.0702
     25 C         142.0420  142.0489  162.2937 C.3     1  UNL1        0.0208
     26 C         142.9949  143.1357  162.6947 C.3     1  UNL1        0.0160
     27 C         142.1993  144.3845  162.9345 C.3     1  UNL1        0.0404
     28 C         143.5360  144.9869  163.2513 C.3     1  UNL1        0.0156
     29 N         141.6832  145.7593  163.2404 N.3     1  UNL1       -0.3231
     30 C         140.7547  144.0696  162.6816 C.3     1  UNL1        0.0282
     31 C         140.5405  145.5102  163.0404 C.3     1  UNL1        0.0029
     32 C         139.2654  144.0557  162.5037 C.3     1  UNL1        0.0029
     33 H         142.4626  146.3666  163.4934 H       1  UNL1        0.1188
     34 H         141.0244  145.7099  164.0176 H       1  UNL1        0.1188
@<TRIPOS>BOND
     1    10    11    1
     2    11    12   ar
     3    12    13   ar
     4    13     1    1
     5     1     2   ar
     6     2     3   ar
     7     3     4   ar
     8     4    22    1
     9    24    22    1
    10    24    25    1
    11    25    26    1
    12    26    27    1
    13    27    28    1
    14    27    29    1
    15    27    30    1
    16    30    31    1
    17    30    32    1
    18     4     5   ar
    19     5    17    1
    20    17    18   am
    21    17    19    2
    22     5     6   ar
    23     6     7   ar
    24     7     8   ar
    25     8     9   ar
    26    13    14   ar
    27    14    15   ar
    28    15    16   ar
    29    16    11   ar
    30     9     1   ar
    31     8     3   ar
    32    30    24    1
    33    22    23    1
    34    29    33    1
    35    29    34    1
    36    18    20    1
    37    18    21    1
@<TRIPOS>MOLECULE
*****
 34 37 0 0 0
SMALL
GASTEIGER

@<TRIPOS>ATOM
      1 C         141.3868  139.4440  165.6623 C.ar    1  UNL1        0.0208
      2 C         140.5104  140.0667  164.6163 C.ar    1  UNL1        0.0219
      3 C         140.8792  139.4728  163.2892 C.ar    1  UNL1        0.0961
      4 C         140.3521  139.7054  161.9042 C.ar    1  UNL1        0.0685
      5 C         140.9294  138.9482  160.7451 C.ar    1  UNL1        0.0885
      6 C         142.0336  137.9586  160.9709 C.ar    1  UNL1        0.1263
      7 N         142.5607  137.7260  162.3558 N.ar    1  UNL1       -0.1633
      8 N         141.9835  138.4831  163.5150 N.ar    1  UNL1       -0.2270
      9 C         142.2972  138.4653  164.9817 C.ar    1  UNL1        0.1004
     10 C         138.7029  140.3945  170.0089 C.3     1  UNL1        0.0521
     11 C         140.0159  140.2221  169.3045 C.ar    1  UNL1        0.0594
     12 C         140.0449  139.9192  167.8357 C.ar    1  UNL1        0.0148
     13 C         141.3579  139.7468  167.1311 C.ar    1  UNL1        0.0043
     14 C         142.6419  139.8773  167.8955 C.ar    1  UNL1        0.0207
     15 C         142.6129  140.1801  169.3643 C.ar    1  UNL1        0.0984
     16 N         141.2999  140.3525  170.0688 N.ar    1  UNL1       -0.2481
     17 C         140.4023  139.1808  159.3601 C.2     1  UNL1        0.2456
     18 N         141.3403  139.5699  158.2561 N.am    1  UNL1       -0.3252
     19 O         138.9371  139.0244  159.0791 O.2     1  UNL1       -0.2703
     20 H         142.3019  139.6725  158.4405 H       1  UNL1        0.1453
     21 H         140.9943  139.7225  157.3471 H       1  UNL1        0.1453
     22 N         139.2478  140.6951  161.6783 N.pl3   1  UNL1       -0.3327
     23 H         138.3194  140.3828  161.5798 H       1  UNL1        0.1468
     24 C         139.5581  142.1607  161.6025 C.3     1  UNL1        0.0702
     25 C         140.7430  142.7769  160.9197 C.3     1  UNL1        0.0208
     26 C         140.6553  144.2644  161.0914 C.3     1  UNL1        0.0160
     27 C         139.4161  144.5676  161.8804 C.3     1  UNL1        0.0404
     28 C         139.8543  145.9935  161.7225 C.3     1  UNL1        0.0156
     29 N         138.2686  145.1689  162.6363 N.3     1  UNL1       -0.3231
     30 C         138.7380  143.2675  162.1963 C.3     1  UNL1        0.0282
     31 C         137.7322  144.1406  162.8863 C.3     1  UNL1        0.0029
     32 C         137.8497  142.1499  162.6564 C.3     1  UNL1        0.0029
     33 H         138.3683  146.1839  162.6550 H       1  UNL1        0.1188
     34 H         138.2651  144.8100  163.5911 H       1  UNL1        0.1188
@<TRIPOS>BOND
     1    10    11    1
     2    11    12   ar
     3    12    13   ar
     4    13     1    1
     5     1     2   ar
     6     2     3   ar
     7     3     4   ar
     8     4    22    1
     9    24    22    1
    10    24    25    1
    11    25    26    1
    12    26    27    1
    13    27    28    1
    14    27    29    1
    15    27    30    1
    16    30    31    1
    17    30    32    1
    18     4     5   ar
    19     5    17    1
    20    17    18   am
    21    17    19    2
    22     5     6   ar
    23     6     7   ar
    24     7     8   ar
    25     8     9   ar
    26    13    14   ar
    27    14    15   ar
    28    15    16   ar
    29    16    11   ar
    30     9     1   ar
    31     8     3   ar
    32    30    24    1
    33    22    23    1
    34    29    33    1
    35    29    34    1
    36    18    20    1
    37    18    21    1
@<TRIPOS>MOLECULE
*****
 34 37 0 0 0
SMALL
GASTEIGER

@<TRIPOS>ATOM
      1 C         142.0353  140.2761  166.5279 C.ar    1  UNL1        0.0208
      2 C         142.4003  141.0805  165.3156 C.ar    1  UNL1        0.0219
      3 C         142.3334  140.1754  164.1214 C.ar    1  UNL1        0.0961
      4 C         142.5900  140.4170  162.6634 C.ar    1  UNL1        0.0685
      5 C         142.4401  139.2946  161.6795 C.ar    1  UNL1        0.0885
      6 C         142.0337  137.9309  162.1536 C.ar    1  UNL1        0.1263
      7 N         141.7771  137.6893  163.6116 N.ar    1  UNL1       -0.1633
      8 N         141.9269  138.8116  164.5955 N.ar    1  UNL1       -0.2270
      9 C         141.7427  138.8738  166.0828 C.ar    1  UNL1        0.1004
     10 C         140.5326  143.8889  169.9469 C.3     1  UNL1        0.0521
     11 C         141.2222  142.5910  169.6473 C.ar    1  UNL1        0.0594
     12 C         141.2840  142.0824  168.2374 C.ar    1  UNL1        0.0148
     13 C         141.9736  140.7845  167.9377 C.ar    1  UNL1        0.0043
     14 C         142.6017  139.9952  169.0479 C.ar    1  UNL1        0.0207
     15 C         142.5400  140.5037  170.4577 C.ar    1  UNL1        0.0984
     16 N         141.8503  141.8016  170.7574 N.ar    1  UNL1       -0.2481
     17 C         142.6967  139.5362  160.2214 C.2     1  UNL1        0.2456
     18 N         141.6691  139.1395  159.2032 N.am    1  UNL1       -0.3252
     19 O         143.9810  140.1744  159.7815 O.2     1  UNL1       -0.2703
     20 H         140.8262  138.7206  159.4919 H       1  UNL1        0.1453
     21 H         141.8375  139.2980  158.2463 H       1  UNL1        0.1453
     22 N         142.9964  141.7808  162.1891 N.pl3   1  UNL1       -0.3327
     23 H         143.9403  141.9691  161.9823 H       1  UNL1        0.1468
     24 C         141.9645  142.8578  162.0301 C.3     1  UNL1        0.0702
     25 C         140.7445  142.7885  161.1602 C.3     1  UNL1        0.0208
     26 C         139.9975  144.0811  161.3054 C.3     1  UNL1        0.0160
     27 C         140.7558  144.9493  162.2652 C.3     1  UNL1        0.0404
     28 C         139.6503  145.9297  162.0067 C.3     1  UNL1        0.0156
     29 N         141.2830  146.0225  163.1709 N.3     1  UNL1       -0.3231
     30 C         141.9715  144.1933  162.7130 C.3     1  UNL1        0.0282
     31 C         142.2446  145.4246  163.5251 C.3     1  UNL1        0.0029
     32 C         143.2442  143.6947  163.3306 C.3     1  UNL1        0.0029
     33 H         140.6543  146.8254  163.1485 H       1  UNL1        0.1188
     34 H         142.2103  146.3078  162.8561 H       1  UNL1        0.1188
@<TRIPOS>BOND
     1    10    11    1
     2    11    12   ar
     3    12    13   ar
     4    13     1    1
     5     1     2   ar
     6     2     3   ar
     7     3     4   ar
     8     4    22    1
     9    24    22    1
    10    24    25    1
    11    25    26    1
    12    26    27    1
    13    27    28    1
    14    27    29    1
    15    27    30    1
    16    30    31    1
    17    30    32    1
    18     4     5   ar
    19     5    17    1
    20    17    18   am
    21    17    19    2
    22     5     6   ar
    23     6     7   ar
    24     7     8   ar
    25     8     9   ar
    26    13    14   ar
    27    14    15   ar
    28    15    16   ar
    29    16    11   ar
    30     9     1   ar
    31     8     3   ar
    32    30    24    1
    33    22    23    1
    34    29    33    1
    35    29    34    1
    36    18    20    1
    37    18    21    1
