@<TRIPOS>MOLECULE
*****
 34 37 0 0 0
SMALL
GASTEIGER

@<TRIPOS>ATOM
      1 N         138.9772  140.0917  165.6965 N.3     1  UNL1       -0.2691
      2 C         140.3097  140.6007  166.1606 C.3     1  UNL1        0.0724
      3 C         140.7792  141.9627  165.7426 C.3     1  UNL1        0.0188
      4 C         139.9164  142.8155  164.8605 C.3     1  UNL1        0.0188
      5 C         138.5839  142.3064  164.3964 C.3     1  UNL1        0.0188
      6 C         138.1143  140.9445  164.8143 C.3     1  UNL1        0.0724
      7 C         138.5077  138.7298  166.1144 C.3     1  UNL1        0.0987
      8 O         136.5500  137.6616  167.4473 O.co2   1  UNL1       -0.5478
      9 C         137.7512  138.5586  167.3984 C.2     1  UNL1        0.0652
     10 O         138.1961  139.2843  168.6334 O.co2   1  UNL1       -0.5478
     11 C         138.7945  137.5391  165.2485 C.3     1  UNL1        0.0480
     12 C         139.5739  137.7061  163.9777 C.ar    1  UNL1       -0.0203
     13 C         141.0702  137.6030  163.9966 C.ar    1  UNL1       -0.0019
     14 C         141.8495  137.7701  162.7259 C.ar    1  UNL1        0.0293
     15 C         141.1325  138.0403  161.4363 C.ar    1  UNL1        0.1401
     16 F         141.9119  138.2073  160.1656 F       1  UNL1       -0.2042
     17 C         139.6362  138.1434  161.4175 C.ar    1  UNL1        0.0293
     18 C         138.8569  137.9763  162.6882 C.ar    1  UNL1       -0.0019
     19 C         140.3859  144.1774  164.4425 C.3     1  UNL1        0.0721
     20 N         140.7193  144.4474  163.0052 N.3     1  UNL1       -0.2724
     21 C         141.8575  143.7225  162.3503 C.3     1  UNL1        0.0758
     22 C         142.1909  143.9925  160.9130 C.3     1  UNL1        0.0609
     23 C         141.3859  144.9874  160.1305 C.3     1  UNL1        0.1687
     24 C         140.2477  145.7123  160.7854 C.3     1  UNL1        0.0609
     25 C         139.9143  145.4423  162.2228 C.3     1  UNL1        0.0758
     26 O         141.7193  145.2574  158.6932 O.3     1  UNL1       -0.4782
     27 C         140.6455  145.1864  157.6481 C.ar    1  UNL1        0.1489
     28 C         140.0927  146.4478  157.0538 C.ar    1  UNL1        0.0386
     29 C         139.0190  146.3768  156.0088 C.ar    1  UNL1        0.0146
     30 C         138.4981  145.0443  155.5580 C.ar    1  UNL1        0.0587
     31 CL        137.4244  144.9733  154.5130 Cl      1  UNL1       -0.0822
     32 C         139.0509  143.7829  156.1523 C.ar    1  UNL1        0.0258
     33 C         140.1246  143.8539  157.1974 C.ar    1  UNL1        0.0924
     34 CL        140.6774  142.5925  157.7916 Cl      1  UNL1       -0.0791
@<TRIPOS>UNITY_ATOM_ATTR
8 1
charge -1
@<TRIPOS>BOND
     1     8     9   ar
     2     9    10   ar
     3     9     7    1
     4     7    11    1
     5    11    12    1
     6    12    13   ar
     7    13    14   ar
     8    14    15   ar
     9    15    16    1
    10    15    17   ar
    11    17    18   ar
    12     7     1    1
    13     1     2    1
    14     2     3    1
    15     3     4    1
    16     4    19    1
    17    19    20    1
    18    20    21    1
    19    21    22    1
    20    22    23    1
    21    23    26    1
    22    26    27    1
    23    27    28   ar
    24    28    29   ar
    25    29    30   ar
    26    30    31    1
    27    30    32   ar
    28    32    33   ar
    29    33    34    1
    30    23    24    1
    31    24    25    1
    32     4     5    1
    33     5     6    1
    34    18    12   ar
    35     6     1    1
    36    25    20    1
    37    33    27   ar
@<TRIPOS>MOLECULE
*****
 34 37 0 0 0
SMALL
GASTEIGER

@<TRIPOS>ATOM
      1 N         141.1878  140.2459  166.8574 N.3     1  UNL1       -0.2691
      2 C         141.4028  141.5447  166.1387 C.3     1  UNL1        0.0724
      3 C         142.5983  141.7213  165.2502 C.3     1  UNL1        0.0188
      4 C         143.5789  140.5990  165.0804 C.3     1  UNL1        0.0188
      5 C         143.3639  139.3000  165.7992 C.3     1  UNL1        0.0188
      6 C         142.1684  139.1235  166.6877 C.3     1  UNL1        0.0724
      7 C         139.9922  140.0693  167.7459 C.3     1  UNL1        0.0987
      8 O         139.7719  141.9293  169.5465 O.co2   1  UNL1       -0.5478
      9 C         140.0537  140.5021  169.1809 C.2     1  UNL1        0.0652
     10 O         140.3970  139.5077  170.2501 O.co2   1  UNL1       -0.5478
     11 C         138.7352  139.4599  167.1996 C.3     1  UNL1        0.0480
     12 C         138.5955  139.2241  165.7248 C.ar    1  UNL1       -0.0203
     13 C         138.9473  137.8872  165.1424 C.ar    1  UNL1       -0.0019
     14 C         138.8076  137.6514  163.6677 C.ar    1  UNL1        0.0293
     15 C         138.3162  138.7525  162.7753 C.ar    1  UNL1        0.1401
     16 F         138.1766  138.5166  161.3005 F       1  UNL1       -0.2042
     17 C         137.9645  140.0893  163.3577 C.ar    1  UNL1        0.0293
     18 C         138.1042  140.3251  164.8324 C.ar    1  UNL1       -0.0019
     19 C         144.7745  140.7756  164.1919 C.3     1  UNL1        0.0721
     20 N         144.5880  141.0943  162.7381 N.3     1  UNL1       -0.2724
     21 C         144.8204  142.4901  162.2404 C.3     1  UNL1        0.0758
     22 C         144.6339  142.8088  160.7866 C.3     1  UNL1        0.0609
     23 C         144.2149  141.7317  159.8304 C.3     1  UNL1        0.1687
     24 C         143.9825  140.3359  160.3281 C.3     1  UNL1        0.0609
     25 C         144.1690  140.0172  161.7819 C.3     1  UNL1        0.0758
     26 O         144.0284  142.0504  158.3766 O.3     1  UNL1       -0.4782
     27 C         145.1892  141.9500  157.4318 C.ar    1  UNL1        0.1489
     28 C         146.4073  142.7984  157.6475 C.ar    1  UNL1        0.0386
     29 C         147.5681  142.6980  156.7028 C.ar    1  UNL1        0.0146
     30 C         147.5108  141.7492  155.5424 C.ar    1  UNL1        0.0587
     31 CL        148.6715  141.6488  154.5976 Cl      1  UNL1       -0.0822
     32 C         146.2927  140.9007  155.3267 C.ar    1  UNL1        0.0258
     33 C         145.1319  141.0012  156.2715 C.ar    1  UNL1        0.0924
     34 CL        143.9138  140.1528  156.0559 Cl      1  UNL1       -0.0791
@<TRIPOS>UNITY_ATOM_ATTR
8 1
charge -1
@<TRIPOS>BOND
     1     8     9   ar
     2     9    10   ar
     3     9     7    1
     4     7    11    1
     5    11    12    1
     6    12    13   ar
     7    13    14   ar
     8    14    15   ar
     9    15    16    1
    10    15    17   ar
    11    17    18   ar
    12     7     1    1
    13     1     2    1
    14     2     3    1
    15     3     4    1
    16     4    19    1
    17    19    20    1
    18    20    21    1
    19    21    22    1
    20    22    23    1
    21    23    26    1
    22    26    27    1
    23    27    28   ar
    24    28    29   ar
    25    29    30   ar
    26    30    31    1
    27    30    32   ar
    28    32    33   ar
    29    33    34    1
    30    23    24    1
    31    24    25    1
    32     4     5    1
    33     5     6    1
    34    18    12   ar
    35     6     1    1
    36    25    20    1
    37    33    27   ar
@<TRIPOS>MOLECULE
*****
 34 37 0 0 0
SMALL
GASTEIGER

@<TRIPOS>ATOM
      1 N         138.3575  139.9266  165.0180 N.3     1  UNL1       -0.2691
      2 C         137.6571  139.8744  163.6927 C.3     1  UNL1        0.0724
      3 C         137.4830  141.1273  162.8865 C.3     1  UNL1        0.0188
      4 C         138.0093  142.4324  163.4057 C.3     1  UNL1        0.0188
      5 C         138.7098  142.4847  164.7311 C.3     1  UNL1        0.0188
      6 C         138.8839  141.2318  165.5373 C.3     1  UNL1        0.0724
      7 C         138.5316  138.6737  165.8242 C.3     1  UNL1        0.0987
      8 O         136.7432  137.6936  167.4339 O.co2   1  UNL1       -0.5478
      9 C         137.9332  138.5754  167.1962 C.2     1  UNL1        0.0652
     10 O         138.5246  139.3588  168.3303 O.co2   1  UNL1       -0.5478
     11 C         139.3042  137.5191  165.2585 C.3     1  UNL1        0.0480
     12 C         140.5359  137.7700  164.4399 C.ar    1  UNL1       -0.0203
     13 C         141.7692  138.3224  165.0907 C.ar    1  UNL1       -0.0019
     14 C         143.0009  138.5732  164.2721 C.ar    1  UNL1        0.0293
     15 C         142.9992  138.2716  162.8028 C.ar    1  UNL1        0.1401
     16 F         144.2309  138.5225  161.9842 F       1  UNL1       -0.2042
     17 C         141.7658  137.7192  162.1520 C.ar    1  UNL1        0.0293
     18 C         140.5342  137.4683  162.9705 C.ar    1  UNL1       -0.0019
     19 C         137.8352  143.6853  162.5996 C.3     1  UNL1        0.0721
     20 N         138.9033  144.1122  161.6368 N.3     1  UNL1       -0.2724
     21 C         139.7024  145.3530  161.9049 C.3     1  UNL1        0.0758
     22 C         140.7705  145.7798  160.9421 C.3     1  UNL1        0.0609
     23 C         141.0394  144.9659  159.7112 C.3     1  UNL1        0.1687
     24 C         140.2403  143.7252  159.4430 C.3     1  UNL1        0.0609
     25 C         139.1722  143.2983  160.4058 C.3     1  UNL1        0.0758
     26 O         142.1075  145.3928  158.7484 O.3     1  UNL1       -0.4782
     27 C         141.9239  145.1682  157.2766 C.ar    1  UNL1        0.1489
     28 C         141.0789  146.1123  156.4736 C.ar    1  UNL1        0.0386
     29 C         140.8953  145.8878  155.0020 C.ar    1  UNL1        0.0146
     30 C         141.5566  144.7192  154.3332 C.ar    1  UNL1        0.0587
     31 CL        141.3730  144.4947  152.8616 Cl      1  UNL1       -0.0822
     32 C         142.4016  143.7751  155.1362 C.ar    1  UNL1        0.0258
     33 C         142.5852  143.9997  156.6080 C.ar    1  UNL1        0.0924
     34 CL        143.4302  143.0557  157.4110 Cl      1  UNL1       -0.0791
@<TRIPOS>UNITY_ATOM_ATTR
8 1
charge -1
@<TRIPOS>BOND
     1     8     9   ar
     2     9    10   ar
     3     9     7    1
     4     7    11    1
     5    11    12    1
     6    12    13   ar
     7    13    14   ar
     8    14    15   ar
     9    15    16    1
    10    15    17   ar
    11    17    18   ar
    12     7     1    1
    13     1     2    1
    14     2     3    1
    15     3     4    1
    16     4    19    1
    17    19    20    1
    18    20    21    1
    19    21    22    1
    20    22    23    1
    21    23    26    1
    22    26    27    1
    23    27    28   ar
    24    28    29   ar
    25    29    30   ar
    26    30    31    1
    27    30    32   ar
    28    32    33   ar
    29    33    34    1
    30    23    24    1
    31    24    25    1
    32     4     5    1
    33     5     6    1
    34    18    12   ar
    35     6     1    1
    36    25    20    1
    37    33    27   ar
@<TRIPOS>MOLECULE
*****
 34 37 0 0 0
SMALL
GASTEIGER

@<TRIPOS>ATOM
      1 N         140.5301  140.6665  167.3923 N.3     1  UNL1       -0.2691
      2 C         141.6889  139.8268  166.9429 C.3     1  UNL1        0.0724
      3 C         142.8211  140.4549  166.1854 C.3     1  UNL1        0.0188
      4 C         142.7943  141.9227  165.8773 C.3     1  UNL1        0.0188
      5 C         141.6355  142.7624  166.3267 C.3     1  UNL1        0.0188
      6 C         140.5033  142.1343  167.0842 C.3     1  UNL1        0.0724
      7 C         139.3980  140.0384  168.1498 C.3     1  UNL1        0.0987
      8 O         137.9928  139.9164  170.3317 O.co2   1  UNL1       -0.5478
      9 C         139.2742  140.2544  169.6290 C.2     1  UNL1        0.0652
     10 O         140.4319  140.8082  170.4056 O.co2   1  UNL1       -0.5478
     11 C         138.3896  139.1944  167.4281 C.3     1  UNL1        0.0480
     12 C         138.4246  139.0994  165.9315 C.ar    1  UNL1       -0.0203
     13 C         138.8065  137.8081  165.2707 C.ar    1  UNL1       -0.0019
     14 C         138.8414  137.7132  163.7741 C.ar    1  UNL1        0.0293
     15 C         138.4945  138.9095  162.9384 C.ar    1  UNL1        0.1401
     16 F         138.5294  138.8145  161.4417 F       1  UNL1       -0.2042
     17 C         138.1126  140.2008  163.5992 C.ar    1  UNL1        0.0293
     18 C         138.0776  140.2957  165.0957 C.ar    1  UNL1       -0.0019
     19 C         143.9265  142.5508  165.1198 C.3     1  UNL1        0.0721
     20 N         143.8028  142.7841  163.6433 N.3     1  UNL1       -0.2724
     21 C         144.6417  141.9907  162.6857 C.3     1  UNL1        0.0758
     22 C         144.5180  142.2240  161.2092 C.3     1  UNL1        0.0609
     23 C         143.5555  143.2507  160.6901 C.3     1  UNL1        0.1687
     24 C         142.7166  144.0441  161.6476 C.3     1  UNL1        0.0609
     25 C         142.8403  143.8108  163.1242 C.3     1  UNL1        0.0758
     26 O         143.4318  143.4840  159.2136 O.3     1  UNL1       -0.4782
     27 C         143.8846  142.4299  158.2471 C.ar    1  UNL1        0.1489
     28 C         145.2792  142.4672  157.6959 C.ar    1  UNL1        0.0386
     29 C         145.7320  141.4132  156.7295 C.ar    1  UNL1        0.0146
     30 C         144.7903  140.3218  156.3143 C.ar    1  UNL1        0.0587
     31 CL        145.2432  139.2678  155.3479 Cl      1  UNL1       -0.0822
     32 C         143.3958  140.2846  156.8656 C.ar    1  UNL1        0.0258
     33 C         142.9429  141.3387  157.8320 C.ar    1  UNL1        0.0924
     34 CL        141.5484  141.3015  158.3833 Cl      1  UNL1       -0.0791
@<TRIPOS>UNITY_ATOM_ATTR
8 1
charge -1
@<TRIPOS>BOND
     1     8     9   ar
     2     9    10   ar
     3     9     7    1
     4     7    11    1
     5    11    12    1
     6    12    13   ar
     7    13    14   ar
     8    14    15   ar
     9    15    16    1
    10    15    17   ar
    11    17    18   ar
    12     7     1    1
    13     1     2    1
    14     2     3    1
    15     3     4    1
    16     4    19    1
    17    19    20    1
    18    20    21    1
    19    21    22    1
    20    22    23    1
    21    23    26    1
    22    26    27    1
    23    27    28   ar
    24    28    29   ar
    25    29    30   ar
    26    30    31    1
    27    30    32   ar
    28    32    33   ar
    29    33    34    1
    30    23    24    1
    31    24    25    1
    32     4     5    1
    33     5     6    1
    34    18    12   ar
    35     6     1    1
    36    25    20    1
    37    33    27   ar
@<TRIPOS>MOLECULE
*****
 34 37 0 0 0
SMALL
GASTEIGER

@<TRIPOS>ATOM
      1 N         140.5773  140.9530  167.0314 N.3     1  UNL1       -0.2691
      2 C         140.2033  142.3283  166.5637 C.3     1  UNL1        0.0724
      3 C         141.1631  143.1234  165.7290 C.3     1  UNL1        0.0188
      4 C         142.4968  142.5433  165.3622 C.3     1  UNL1        0.0188
      5 C         142.8708  141.1680  165.8299 C.3     1  UNL1        0.0188
      6 C         141.9110  140.3729  166.6645 C.3     1  UNL1        0.0724
      7 C         139.6175  140.1579  167.8660 C.3     1  UNL1        0.0987
      8 O         138.7502  140.9156  170.1949 O.co2   1  UNL1       -0.5478
      9 C         139.7426  140.1610  169.3608 C.2     1  UNL1        0.0652
     10 O         140.8602  139.4096  170.0214 O.co2   1  UNL1       -0.5478
     11 C         138.5326  139.3597  167.2059 C.3     1  UNL1        0.0480
     12 C         138.5741  139.1177  165.7260 C.ar    1  UNL1       -0.0203
     13 C         139.1153  137.8245  165.1925 C.ar    1  UNL1       -0.0019
     14 C         139.1568  137.5825  163.7127 C.ar    1  UNL1        0.0293
     15 C         138.6570  138.6338  162.7666 C.ar    1  UNL1        0.1401
     16 F         138.6985  138.3918  161.2867 F       1  UNL1       -0.2042
     17 C         138.1158  139.9269  163.3001 C.ar    1  UNL1        0.0293
     18 C         138.0744  140.1689  164.7799 C.ar    1  UNL1       -0.0019
     19 C         143.4566  143.3385  164.5275 C.3     1  UNL1        0.0721
     20 N         143.3668  143.2908  163.0310 N.3     1  UNL1       -0.2724
     21 C         142.1718  143.8688  162.3325 C.3     1  UNL1        0.0758
     22 C         142.0820  143.8212  160.8360 C.3     1  UNL1        0.0609
     23 C         143.1873  143.1956  160.0379 C.3     1  UNL1        0.1687
     24 C         144.3823  142.6176  160.7363 C.3     1  UNL1        0.0609
     25 C         144.4721  142.6652  162.2329 C.3     1  UNL1        0.0758
     26 O         143.0975  143.1480  158.5414 O.3     1  UNL1       -0.4782
     27 C         142.0166  143.9070  157.8303 C.ar    1  UNL1        0.1489
     28 C         142.2168  145.3535  157.4877 C.ar    1  UNL1        0.0386
     29 C         141.1360  146.1125  156.7767 C.ar    1  UNL1        0.0146
     30 C         139.8547  145.4249  156.4082 C.ar    1  UNL1        0.0587
     31 CL        138.7739  146.1839  155.6971 Cl      1  UNL1       -0.0822
     32 C         139.6544  143.9784  156.7507 C.ar    1  UNL1        0.0258
     33 C         140.7354  143.2194  157.4618 C.ar    1  UNL1        0.0924
     34 CL        140.5351  141.7728  157.8044 Cl      1  UNL1       -0.0791
@<TRIPOS>UNITY_ATOM_ATTR
8 1
charge -1
@<TRIPOS>BOND
     1     8     9   ar
     2     9    10   ar
     3     9     7    1
     4     7    11    1
     5    11    12    1
     6    12    13   ar
     7    13    14   ar
     8    14    15   ar
     9    15    16    1
    10    15    17   ar
    11    17    18   ar
    12     7     1    1
    13     1     2    1
    14     2     3    1
    15     3     4    1
    16     4    19    1
    17    19    20    1
    18    20    21    1
    19    21    22    1
    20    22    23    1
    21    23    26    1
    22    26    27    1
    23    27    28   ar
    24    28    29   ar
    25    29    30   ar
    26    30    31    1
    27    30    32   ar
    28    32    33   ar
    29    33    34    1
    30    23    24    1
    31    24    25    1
    32     4     5    1
    33     5     6    1
    34    18    12   ar
    35     6     1    1
    36    25    20    1
    37    33    27   ar
@<TRIPOS>MOLECULE
*****
 34 37 0 0 0
SMALL
GASTEIGER

@<TRIPOS>ATOM
      1 N         140.3319  140.6571  167.7173 N.3     1  UNL1       -0.2691
      2 C         140.2495  142.0688  167.2172 C.3     1  UNL1        0.0724
      3 C         141.4536  142.7179  166.6016 C.3     1  UNL1        0.0188
      4 C         142.7400  141.9552  166.4861 C.3     1  UNL1        0.0188
      5 C         142.8225  140.5434  166.9863 C.3     1  UNL1        0.0188
      6 C         141.6184  139.8943  167.6019 C.3     1  UNL1        0.0724
      7 C         139.1279  140.0080  168.3330 C.3     1  UNL1        0.0987
      8 O         137.6533  139.5307  170.4181 O.co2   1  UNL1       -0.5478
      9 C         138.7921  140.2631  169.7725 C.2     1  UNL1        0.0652
     10 O         139.5949  141.2506  170.5663 O.co2   1  UNL1       -0.5478
     11 C         138.2597  139.1038  167.5091 C.3     1  UNL1        0.0480
     12 C         138.4267  139.0569  166.0191 C.ar    1  UNL1       -0.0203
     13 C         138.9695  137.8216  165.3638 C.ar    1  UNL1       -0.0019
     14 C         139.1364  137.7747  163.8739 C.ar    1  UNL1        0.0293
     15 C         138.7605  138.9630  163.0393 C.ar    1  UNL1        0.1401
     16 F         138.9275  138.9161  161.5493 F       1  UNL1       -0.2042
     17 C         138.2178  140.1983  163.6946 C.ar    1  UNL1        0.0293
     18 C         138.0508  140.2452  165.1845 C.ar    1  UNL1       -0.0019
     19 C         143.9440  142.6043  165.8705 C.3     1  UNL1        0.0721
     20 N         144.1474  142.5516  164.3853 N.3     1  UNL1       -0.2724
     21 C         143.9130  143.7768  163.5522 C.3     1  UNL1        0.0758
     22 C         144.1164  143.7241  162.0670 C.3     1  UNL1        0.0609
     23 C         144.5543  142.4462  161.4149 C.3     1  UNL1        0.1687
     24 C         144.7887  141.2211  162.2479 C.3     1  UNL1        0.0609
     25 C         144.5853  141.2737  163.7331 C.3     1  UNL1        0.0758
     26 O         144.7577  142.3935  159.9297 O.3     1  UNL1       -0.4782
     27 C         143.5726  142.3344  159.0120 C.ar    1  UNL1        0.1489
     28 C         142.9589  143.6025  158.4969 C.ar    1  UNL1        0.0386
     29 C         141.7738  143.5434  157.5792 C.ar    1  UNL1        0.0146
     30 C         141.2024  142.2161  157.1766 C.ar    1  UNL1        0.0587
     31 CL        140.0174  142.1570  156.2589 Cl      1  UNL1       -0.0822
     32 C         141.8161  140.9480  157.6917 C.ar    1  UNL1        0.0258
     33 C         143.0012  141.0072  158.6094 C.ar    1  UNL1        0.0924
     34 CL        143.6149  139.7391  159.1245 Cl      1  UNL1       -0.0791
@<TRIPOS>UNITY_ATOM_ATTR
8 1
charge -1
@<TRIPOS>BOND
     1     8     9   ar
     2     9    10   ar
     3     9     7    1
     4     7    11    1
     5    11    12    1
     6    12    13   ar
     7    13    14   ar
     8    14    15   ar
     9    15    16    1
    10    15    17   ar
    11    17    18   ar
    12     7     1    1
    13     1     2    1
    14     2     3    1
    15     3     4    1
    16     4    19    1
    17    19    20    1
    18    20    21    1
    19    21    22    1
    20    22    23    1
    21    23    26    1
    22    26    27    1
    23    27    28   ar
    24    28    29   ar
    25    29    30   ar
    26    30    31    1
    27    30    32   ar
    28    32    33   ar
    29    33    34    1
    30    23    24    1
    31    24    25    1
    32     4     5    1
    33     5     6    1
    34    18    12   ar
    35     6     1    1
    36    25    20    1
    37    33    27   ar
@<TRIPOS>MOLECULE
*****
 34 37 0 0 0
SMALL
GASTEIGER

@<TRIPOS>ATOM
      1 N         139.5611  140.3173  166.7148 N.3     1  UNL1       -0.2691
      2 C         139.3349  141.5958  165.9635 C.3     1  UNL1        0.0724
      3 C         138.7310  141.5623  164.5909 C.3     1  UNL1        0.0188
      4 C         138.3532  140.2504  163.9695 C.3     1  UNL1        0.0188
      5 C         138.5794  138.9719  164.7207 C.3     1  UNL1        0.0188
      6 C         139.1833  139.0053  166.0934 C.3     1  UNL1        0.0724
      7 C         140.1650  140.3508  168.0874 C.3     1  UNL1        0.0987
      8 O         139.5667  141.3514  170.4093 O.co2   1  UNL1       -0.5478
      9 C         139.2778  140.3880  169.2964 C.2     1  UNL1        0.0652
     10 O         138.1017  139.4620  169.3925 O.co2   1  UNL1       -0.5478
     11 C         141.6560  140.3470  168.2511 C.3     1  UNL1        0.0480
     12 C         142.5429  140.2739  167.0436 C.ar    1  UNL1       -0.0203
     13 C         142.9778  141.5336  166.3551 C.ar    1  UNL1       -0.0019
     14 C         143.8647  141.4605  165.1477 C.ar    1  UNL1        0.0293
     15 C         144.3167  140.1276  164.6286 C.ar    1  UNL1        0.1401
     16 F         145.2036  140.0546  163.4211 F       1  UNL1       -0.2042
     17 C         143.8817  138.8680  165.3171 C.ar    1  UNL1        0.0293
     18 C         142.9949  138.9411  166.5246 C.ar    1  UNL1       -0.0019
     19 C         137.7493  140.2169  162.5968 C.3     1  UNL1        0.0721
     20 N         138.6297  140.0494  161.3940 N.3     1  UNL1       -0.2724
     21 C         139.0124  138.6752  160.9301 C.3     1  UNL1        0.0758
     22 C         139.8928  138.5077  159.7273 C.3     1  UNL1        0.0609
     23 C         140.3905  139.7144  158.9883 C.3     1  UNL1        0.1687
     24 C         140.0079  141.0886  159.4521 C.3     1  UNL1        0.0609
     25 C         139.1274  141.2561  160.6549 C.3     1  UNL1        0.0758
     26 O         141.2709  139.5469  157.7855 O.3     1  UNL1       -0.4782
     27 C         141.4729  138.1861  157.1875 C.ar    1  UNL1        0.1489
     28 C         142.6562  137.3574  157.5917 C.ar    1  UNL1        0.0386
     29 C         142.8582  135.9967  156.9938 C.ar    1  UNL1        0.0146
     30 C         141.8770  135.4645  155.9917 C.ar    1  UNL1        0.0587
     31 CL        142.0791  134.1038  155.3938 Cl      1  UNL1       -0.0822
     32 C         140.6938  136.2932  155.5875 C.ar    1  UNL1        0.0258
     33 C         140.4918  137.6540  156.1854 C.ar    1  UNL1        0.0924
     34 CL        139.3086  138.4826  155.7813 Cl      1  UNL1       -0.0791
@<TRIPOS>UNITY_ATOM_ATTR
8 1
charge -1
@<TRIPOS>BOND
     1     8     9   ar
     2     9    10   ar
     3     9     7    1
     4     7    11    1
     5    11    12    1
     6    12    13   ar
     7    13    14   ar
     8    14    15   ar
     9    15    16    1
    10    15    17   ar
    11    17    18   ar
    12     7     1    1
    13     1     2    1
    14     2     3    1
    15     3     4    1
    16     4    19    1
    17    19    20    1
    18    20    21    1
    19    21    22    1
    20    22    23    1
    21    23    26    1
    22    26    27    1
    23    27    28   ar
    24    28    29   ar
    25    29    30   ar
    26    30    31    1
    27    30    32   ar
    28    32    33   ar
    29    33    34    1
    30    23    24    1
    31    24    25    1
    32     4     5    1
    33     5     6    1
    34    18    12   ar
    35     6     1    1
    36    25    20    1
    37    33    27   ar
@<TRIPOS>MOLECULE
*****
 34 37 0 0 0
SMALL
GASTEIGER

@<TRIPOS>ATOM
      1 N         140.6103  140.7112  167.1937 N.3     1  UNL1       -0.2691
      2 C         141.8369  139.9364  166.8130 C.3     1  UNL1        0.0724
      3 C         142.9200  140.5936  166.0099 C.3     1  UNL1        0.0188
      4 C         142.7766  142.0258  165.5877 C.3     1  UNL1        0.0188
      5 C         141.5499  142.8007  165.9684 C.3     1  UNL1        0.0188
      6 C         140.4668  142.1435  166.7714 C.3     1  UNL1        0.0724
      7 C         139.5272  140.0540  167.9967 C.3     1  UNL1        0.0987
      8 O         140.7360  140.6650  170.2138 O.co2   1  UNL1       -0.5478
      9 C         139.5082  140.1977  169.4897 C.2     1  UNL1        0.0652
     10 O         138.2616  139.8741  170.2586 O.co2   1  UNL1       -0.5478
     11 C         138.4630  139.2531  167.3068 C.3     1  UNL1        0.0480
     12 C         138.4848  139.1052  165.8142 C.ar    1  UNL1       -0.0203
     13 C         138.0198  140.2334  164.9419 C.ar    1  UNL1       -0.0019
     14 C         138.0416  140.0856  163.4494 C.ar    1  UNL1        0.0293
     15 C         138.5283  138.8095  162.8292 C.ar    1  UNL1        0.1401
     16 F         138.5501  138.6617  161.3366 F       1  UNL1       -0.2042
     17 C         138.9933  137.6813  163.7014 C.ar    1  UNL1        0.0293
     18 C         138.9715  137.8292  165.1939 C.ar    1  UNL1       -0.0019
     19 C         143.8597  142.6830  164.7846 C.3     1  UNL1        0.0721
     20 N         143.7134  142.8196  163.2981 N.3     1  UNL1       -0.2724
     21 C         144.6596  142.1012  162.3822 C.3     1  UNL1        0.0758
     22 C         144.5133  142.2377  160.8956 C.3     1  UNL1        0.0609
     23 C         143.4208  143.0926  160.3249 C.3     1  UNL1        0.1687
     24 C         142.4747  143.8109  161.2407 C.3     1  UNL1        0.0609
     25 C         142.6210  143.6744  162.7273 C.3     1  UNL1        0.0758
     26 O         143.2745  143.2291  158.8383 O.3     1  UNL1       -0.4782
     27 C         141.9093  143.2389  158.2168 C.ar    1  UNL1        0.1489
     28 C         141.0973  141.9786  158.1706 C.ar    1  UNL1        0.0386
     29 C         139.7322  141.9883  157.5491 C.ar    1  UNL1        0.0146
     30 C         139.1790  143.2583  156.9737 C.ar    1  UNL1        0.0587
     31 CL        137.8139  143.2680  156.3522 Cl      1  UNL1       -0.0822
     32 C         139.9911  144.5187  157.0199 C.ar    1  UNL1        0.0258
     33 C         141.3563  144.5089  157.6414 C.ar    1  UNL1        0.0924
     34 CL        142.1683  145.7693  157.6875 Cl      1  UNL1       -0.0791
@<TRIPOS>UNITY_ATOM_ATTR
8 1
charge -1
@<TRIPOS>BOND
     1     8     9   ar
     2     9    10   ar
     3     9     7    1
     4     7    11    1
     5    11    12    1
     6    12    13   ar
     7    13    14   ar
     8    14    15   ar
     9    15    16    1
    10    15    17   ar
    11    17    18   ar
    12     7     1    1
    13     1     2    1
    14     2     3    1
    15     3     4    1
    16     4    19    1
    17    19    20    1
    18    20    21    1
    19    21    22    1
    20    22    23    1
    21    23    26    1
    22    26    27    1
    23    27    28   ar
    24    28    29   ar
    25    29    30   ar
    26    30    31    1
    27    30    32   ar
    28    32    33   ar
    29    33    34    1
    30    23    24    1
    31    24    25    1
    32     4     5    1
    33     5     6    1
    34    18    12   ar
    35     6     1    1
    36    25    20    1
    37    33    27   ar
@<TRIPOS>MOLECULE
*****
 34 37 0 0 0
SMALL
GASTEIGER

@<TRIPOS>ATOM
      1 N         140.0284  141.1352  165.8456 N.3     1  UNL1       -0.2691
      2 C         139.4914  142.5291  165.7091 C.3     1  UNL1        0.0724
      3 C         140.2305  143.5401  164.8834 C.3     1  UNL1        0.0188
      4 C         141.5066  143.1571  164.1943 C.3     1  UNL1        0.0188
      5 C         142.0436  141.7631  164.3307 C.3     1  UNL1        0.0188
      6 C         141.3045  140.7522  165.1564 C.3     1  UNL1        0.0724
      7 C         139.2893  140.1243  166.6713 C.3     1  UNL1        0.0987
      8 O         138.1773  139.1617  164.5295 O.co2   1  UNL1       -0.5478
      9 C         138.2828  139.2192  166.0247 C.2     1  UNL1        0.0652
     10 O         137.3820  138.3716  166.8733 O.co2   1  UNL1       -0.5478
     11 C         139.5566  140.0184  168.1434 C.3     1  UNL1        0.0480
     12 C         140.5676  140.9192  168.7888 C.ar    1  UNL1       -0.0203
     13 C         140.1465  142.2536  169.3291 C.ar    1  UNL1       -0.0019
     14 C         141.1574  143.1543  169.9745 C.ar    1  UNL1        0.0293
     15 C         142.5895  142.7206  170.0796 C.ar    1  UNL1        0.1401
     16 F         143.6005  143.6215  170.7251 F       1  UNL1       -0.2042
     17 C         143.0106  141.3862  169.5394 C.ar    1  UNL1        0.0293
     18 C         141.9996  140.4855  168.8940 C.ar    1  UNL1       -0.0019
     19 C         142.2456  144.1681  163.3686 C.3     1  UNL1        0.0721
     20 N         141.9012  144.3496  161.9200 N.3     1  UNL1       -0.2724
     21 C         140.7651  145.2463  161.5259 C.3     1  UNL1        0.0758
     22 C         140.4207  145.4279  160.0773 C.3     1  UNL1        0.0609
     23 C         141.2123  144.7127  159.0228 C.3     1  UNL1        0.1687
     24 C         142.3483  143.8160  159.4169 C.3     1  UNL1        0.0609
     25 C         142.6928  143.6345  160.8655 C.3     1  UNL1        0.0758
     26 O         140.8679  144.8943  157.5743 O.3     1  UNL1       -0.4782
     27 C         139.6125  144.2884  157.0202 C.ar    1  UNL1        0.1489
     28 C         139.0845  143.0050  157.5894 C.ar    1  UNL1        0.0386
     29 C         137.8292  142.3991  157.0354 C.ar    1  UNL1        0.0146
     30 C         137.1017  143.0767  155.9121 C.ar    1  UNL1        0.0587
     31 CL        135.8464  142.4708  155.3581 Cl      1  UNL1       -0.0822
     32 C         137.6297  144.3601  155.3428 C.ar    1  UNL1        0.0258
     33 C         138.8851  144.9660  155.8969 C.ar    1  UNL1        0.0924
     34 CL        139.4131  146.2494  155.3277 Cl      1  UNL1       -0.0791
@<TRIPOS>UNITY_ATOM_ATTR
8 1
charge -1
@<TRIPOS>BOND
     1     8     9   ar
     2     9    10   ar
     3     9     7    1
     4     7    11    1
     5    11    12    1
     6    12    13   ar
     7    13    14   ar
     8    14    15   ar
     9    15    16    1
    10    15    17   ar
    11    17    18   ar
    12     7     1    1
    13     1     2    1
    14     2     3    1
    15     3     4    1
    16     4    19    1
    17    19    20    1
    18    20    21    1
    19    21    22    1
    20    22    23    1
    21    23    26    1
    22    26    27    1
    23    27    28   ar
    24    28    29   ar
    25    29    30   ar
    26    30    31    1
    27    30    32   ar
    28    32    33   ar
    29    33    34    1
    30    23    24    1
    31    24    25    1
    32     4     5    1
    33     5     6    1
    34    18    12   ar
    35     6     1    1
    36    25    20    1
    37    33    27   ar
