@<TRIPOS>MOLECULE
*****
 38 43 0 0 0
SMALL
GASTEIGER

@<TRIPOS>ATOM
      1 C         143.0020  137.6485  160.0592 C.3     1  UNL1        0.2054
      2 O         141.5458  137.4496  160.3588 O.3     1  UNL1       -0.4754
      3 O         137.6667  137.5333  167.1187 O.2     1  UNL1       -0.2445
      4 C         138.3126  138.2693  165.9824 C.ar    1  UNL1        0.3459
      5 C         138.3113  139.7691  165.9631 C.ar    1  UNL1        0.0824
      6 C         138.9572  140.5051  164.8268 C.ar    1  UNL1        0.0094
      7 C         139.6043  139.7412  163.7098 C.ar    1  UNL1        0.0351
      8 C         140.2502  140.4772  162.5735 C.ar    1  UNL1        0.0061
      9 C         140.8973  139.7133  161.4565 C.ar    1  UNL1        0.0371
     10 C         140.8986  138.2135  161.4758 C.ar    1  UNL1        0.1416
     11 C         140.2527  137.4775  162.6121 C.ar    1  UNL1        0.0745
     12 C         139.6056  138.2414  163.7291 C.ar    1  UNL1        0.1517
     13 O         138.9597  137.5054  164.8654 O.2     1  UNL1       -0.4209
     14 C         138.9559  142.0050  164.8075 C.ar    1  UNL1        0.0003
     15 C         140.2398  142.7585  164.9914 C.ar    1  UNL1        0.0000
     16 C         140.2385  144.2584  164.9721 C.ar    1  UNL1        0.0000
     17 C         138.9534  145.0047  164.7689 C.ar    1  UNL1        0.0000
     18 C         137.6694  144.2512  164.5850 C.ar    1  UNL1        0.0000
     19 C         137.6707  142.7514  164.6043 C.ar    1  UNL1        0.0000
     20 C         143.8882  138.3261  161.0621 C.3     1  UNL1        0.0488
     21 C         143.9412  139.8238  161.1252 C.3     1  UNL1        0.0212
     22 C         144.6519  140.5019  162.2588 C.3     1  UNL1        0.0722
     23 N         144.1105  140.3966  163.6537 N.3     1  UNL1       -0.2727
     24 C         143.5924  139.0831  164.1599 C.3     1  UNL1        0.0725
     25 C         143.0510  138.9777  165.5548 C.3     1  UNL1        0.0234
     26 C         143.0278  140.1858  166.4435 C.3     1  UNL1        0.0464
     27 C         143.5460  141.4993  165.9373 C.3     1  UNL1        0.0234
     28 C         144.0874  141.6047  164.5425 C.3     1  UNL1        0.0725
     29 C         142.4864  140.0805  167.8385 C.ar    1  UNL1        0.1003
     30 N         142.7085  138.9395  168.7866 N.ar    1  UNL1       -0.0814
     31 O         141.9872  139.2514  170.0643 O.2     1  UNL1       -0.3536
     32 C         141.3194  140.5852  169.9058 C.ar    1  UNL1        0.1787
     33 C         140.4703  141.3994  170.8364 C.ar    1  UNL1        0.0698
     34 C         139.9296  142.7258  170.3914 C.ar    1  UNL1        0.1433
     35 F         139.0804  143.5400  171.3221 F       1  UNL1       -0.2041
     36 C         140.2381  143.2383  169.0158 C.ar    1  UNL1        0.0299
     37 C         141.0873  142.4241  168.0852 C.ar    1  UNL1        0.0067
     38 C         141.6279  141.0976  168.5302 C.ar    1  UNL1        0.0540
@<TRIPOS>BOND
     1     3     4    2
     2     4     5   ar
     3     5     6   ar
     4     6    14    1
     5    14    15   ar
     6    15    16   ar
     7    16    17   ar
     8    17    18   ar
     9    18    19   ar
    10     6     7   ar
    11     7     8   ar
    12     8     9   ar
    13     9    10   ar
    14    10     2    1
    15     2     1    1
    16     1    20    1
    17    20    21    1
    18    21    22    1
    19    22    23    1
    20    23    24    1
    21    24    25    1
    22    25    26    1
    23    26    29    1
    24    29    30   ar
    25    30    31   ar
    26    31    32   ar
    27    32    33   ar
    28    33    34   ar
    29    34    35    1
    30    34    36   ar
    31    36    37   ar
    32    37    38   ar
    33    26    27    1
    34    27    28    1
    35    10    11   ar
    36    11    12   ar
    37    12    13   ar
    38    13     4   ar
    39    19    14   ar
    40    12     7   ar
    41    28    23    1
    42    38    29   ar
    43    38    32   ar
@<TRIPOS>MOLECULE
*****
 38 43 0 0 0
SMALL
GASTEIGER

@<TRIPOS>ATOM
      1 C         141.0725  145.1362  160.7454 C.3     1  UNL1        0.2054
      2 O         140.2878  145.2258  162.0206 O.3     1  UNL1       -0.4754
      3 O         143.7630  138.7707  164.6673 O.2     1  UNL1       -0.2445
      4 C         142.8710  139.9542  164.8993 C.ar    1  UNL1        0.3459
      5 C         142.2455  140.1694  166.2455 C.ar    1  UNL1        0.0824
      6 C         141.3536  141.3529  166.4776 C.ar    1  UNL1        0.0094
      7 C         141.0871  142.3211  165.3633 C.ar    1  UNL1        0.0351
      8 C         140.1952  143.5046  165.5953 C.ar    1  UNL1        0.0061
      9 C         139.9288  144.4728  164.4811 C.ar    1  UNL1        0.0371
     10 C         140.5543  144.2575  163.1348 C.ar    1  UNL1        0.1416
     11 C         141.4462  143.0741  162.9028 C.ar    1  UNL1        0.0745
     12 C         141.7126  142.1059  164.0170 C.ar    1  UNL1        0.1517
     13 O         142.6046  140.9224  163.7850 O.2     1  UNL1       -0.4209
     14 C         140.7281  141.5681  167.8238 C.ar    1  UNL1        0.0003
     15 C         140.9845  142.8408  168.5751 C.ar    1  UNL1        0.0000
     16 C         140.3590  143.0560  169.9214 C.ar    1  UNL1        0.0000
     17 C         139.4771  141.9986  170.5163 C.ar    1  UNL1        0.0000
     18 C         139.2206  140.7258  169.7650 C.ar    1  UNL1        0.0000
     19 C         139.8461  140.5106  168.4188 C.ar    1  UNL1        0.0000
     20 C         140.3830  145.3204  159.4259 C.3     1  UNL1        0.0488
     21 C         140.9906  144.7544  158.1768 C.3     1  UNL1        0.0212
     22 C         140.6828  143.3453  157.7650 C.3     1  UNL1        0.0722
     23 N         140.6134  142.2601  158.7983 N.3     1  UNL1       -0.2727
     24 C         139.2846  141.8267  159.3428 C.3     1  UNL1        0.0725
     25 C         139.2152  140.7416  160.3761 C.3     1  UNL1        0.0234
     26 C         140.4747  140.0899  160.8649 C.3     1  UNL1        0.0464
     27 C         141.8035  140.5232  160.3204 C.3     1  UNL1        0.0234
     28 C         141.8729  141.6083  159.2871 C.3     1  UNL1        0.0725
     29 C         140.4053  139.0047  161.8982 C.ar    1  UNL1        0.1003
     30 N         141.0944  137.6742  161.8271 N.ar    1  UNL1       -0.0814
     31 O         140.7498  136.9067  163.0689 O.2     1  UNL1       -0.3536
     32 C         139.8476  137.7629  163.9075 C.ar    1  UNL1        0.1787
     33 C         139.1925  137.5294  165.2365 C.ar    1  UNL1        0.0698
     34 C         138.3246  138.5923  165.8419 C.ar    1  UNL1        0.1433
     35 F         137.6694  138.3587  167.1710 F       1  UNL1       -0.2041
     36 C         138.1117  139.8890  165.1184 C.ar    1  UNL1        0.0299
     37 C         138.7668  140.1225  163.7894 C.ar    1  UNL1        0.0067
     38 C         139.6348  139.0595  163.1839 C.ar    1  UNL1        0.0540
@<TRIPOS>BOND
     1     3     4    2
     2     4     5   ar
     3     5     6   ar
     4     6    14    1
     5    14    15   ar
     6    15    16   ar
     7    16    17   ar
     8    17    18   ar
     9    18    19   ar
    10     6     7   ar
    11     7     8   ar
    12     8     9   ar
    13     9    10   ar
    14    10     2    1
    15     2     1    1
    16     1    20    1
    17    20    21    1
    18    21    22    1
    19    22    23    1
    20    23    24    1
    21    24    25    1
    22    25    26    1
    23    26    29    1
    24    29    30   ar
    25    30    31   ar
    26    31    32   ar
    27    32    33   ar
    28    33    34   ar
    29    34    35    1
    30    34    36   ar
    31    36    37   ar
    32    37    38   ar
    33    26    27    1
    34    27    28    1
    35    10    11   ar
    36    11    12   ar
    37    12    13   ar
    38    13     4   ar
    39    19    14   ar
    40    12     7   ar
    41    28    23    1
    42    38    29   ar
    43    38    32   ar
@<TRIPOS>MOLECULE
*****
 38 43 0 0 0
SMALL
GASTEIGER

@<TRIPOS>ATOM
      1 C         140.3834  139.0125  157.2505 C.3     1  UNL1        0.2054
      2 O         139.0844  138.9979  158.0004 O.3     1  UNL1       -0.4754
      3 O         138.8199  136.9872  165.5262 O.2     1  UNL1       -0.2445
      4 C         138.8736  138.0467  164.4657 C.ar    1  UNL1        0.3459
      5 C         138.8928  139.4956  164.8535 C.ar    1  UNL1        0.0824
      6 C         138.9465  140.5552  163.7932 C.ar    1  UNL1        0.0094
      7 C         138.9810  140.1659  162.3449 C.ar    1  UNL1        0.0351
      8 C         139.0347  141.2254  161.2846 C.ar    1  UNL1        0.0061
      9 C         139.0692  140.8361  159.8364 C.ar    1  UNL1        0.0371
     10 C         139.0499  139.3872  159.4486 C.ar    1  UNL1        0.1416
     11 C         138.9962  138.3277  160.5090 C.ar    1  UNL1        0.0745
     12 C         138.9618  138.7170  161.9571 C.ar    1  UNL1        0.1517
     13 O         138.9081  137.6574  163.0176 O.2     1  UNL1       -0.4209
     14 C         138.9657  142.0041  164.1810 C.ar    1  UNL1        0.0003
     15 C         137.6766  142.7503  164.3578 C.ar    1  UNL1        0.0000
     16 C         137.6959  144.1992  164.7456 C.ar    1  UNL1        0.0000
     17 C         139.0042  144.9018  164.9565 C.ar    1  UNL1        0.0000
     18 C         140.2934  144.1556  164.7797 C.ar    1  UNL1        0.0000
     19 C         140.2742  142.7067  164.3919 C.ar    1  UNL1        0.0000
     20 C         141.4476  138.0060  157.5741 C.3     1  UNL1        0.0488
     21 C         142.6220  138.4016  158.4192 C.3     1  UNL1        0.0212
     22 C         142.8025  137.7997  159.7812 C.3     1  UNL1        0.0722
     23 N         142.9698  138.6885  160.9779 N.3     1  UNL1       -0.2727
     24 C         143.5669  138.1418  162.2406 C.3     1  UNL1        0.0725
     25 C         143.7342  139.0306  163.4373 C.3     1  UNL1        0.0234
     26 C         143.3044  140.4661  163.3712 C.3     1  UNL1        0.0464
     27 C         142.7073  141.0129  162.1084 C.3     1  UNL1        0.0234
     28 C         142.5400  140.1241  160.9118 C.3     1  UNL1        0.0725
     29 C         143.4717  141.3550  164.5679 C.ar    1  UNL1        0.1003
     30 N         144.1789  142.6777  164.5917 N.ar    1  UNL1       -0.0814
     31 O         144.1055  143.2174  165.9893 O.2     1  UNL1       -0.3536
     32 C         143.3529  142.2283  166.8292 C.ar    1  UNL1        0.1787
     33 C         142.9737  142.2270  168.2805 C.ar    1  UNL1        0.0698
     34 C         142.2029  141.0748  168.8532 C.ar    1  UNL1        0.1433
     35 F         141.8237  141.0735  170.3046 F       1  UNL1       -0.2041
     36 C         141.8112  139.9237  167.9747 C.ar    1  UNL1        0.0299
     37 C         142.1904  139.9250  166.5235 C.ar    1  UNL1        0.0067
     38 C         142.9613  141.0773  165.9507 C.ar    1  UNL1        0.0540
@<TRIPOS>BOND
     1     3     4    2
     2     4     5   ar
     3     5     6   ar
     4     6    14    1
     5    14    15   ar
     6    15    16   ar
     7    16    17   ar
     8    17    18   ar
     9    18    19   ar
    10     6     7   ar
    11     7     8   ar
    12     8     9   ar
    13     9    10   ar
    14    10     2    1
    15     2     1    1
    16     1    20    1
    17    20    21    1
    18    21    22    1
    19    22    23    1
    20    23    24    1
    21    24    25    1
    22    25    26    1
    23    26    29    1
    24    29    30   ar
    25    30    31   ar
    26    31    32   ar
    27    32    33   ar
    28    33    34   ar
    29    34    35    1
    30    34    36   ar
    31    36    37   ar
    32    37    38   ar
    33    26    27    1
    34    27    28    1
    35    10    11   ar
    36    11    12   ar
    37    12    13   ar
    38    13     4   ar
    39    19    14   ar
    40    12     7   ar
    41    28    23    1
    42    38    29   ar
    43    38    32   ar
@<TRIPOS>MOLECULE
*****
 38 43 0 0 0
SMALL
GASTEIGER

@<TRIPOS>ATOM
      1 C         140.4996  145.4229  160.7277 C.3     1  UNL1        0.2054
      2 O         139.3437  145.0353  161.6014 O.3     1  UNL1       -0.4754
      3 O         138.4952  138.1638  165.1810 O.2     1  UNL1       -0.2445
      4 C         139.0026  139.5754  165.1824 C.ar    1  UNL1        0.3459
      5 C         139.7344  140.1081  166.3785 C.ar    1  UNL1        0.0824
      6 C         140.2417  141.5197  166.3800 C.ar    1  UNL1        0.0094
      7 C         140.0172  142.3986  165.1853 C.ar    1  UNL1        0.0351
      8 C         140.5245  143.8102  165.1868 C.ar    1  UNL1        0.0061
      9 C         140.3000  144.6891  163.9922 C.ar    1  UNL1        0.0371
     10 C         139.5682  144.1563  162.7961 C.ar    1  UNL1        0.1416
     11 C         139.0609  142.7448  162.7946 C.ar    1  UNL1        0.0745
     12 C         139.2854  141.8659  163.9892 C.ar    1  UNL1        0.1517
     13 O         138.7781  140.4543  163.9878 O.2     1  UNL1       -0.4209
     14 C         140.9735  142.0524  167.5761 C.ar    1  UNL1        0.0003
     15 C         140.2488  142.8916  168.5863 C.ar    1  UNL1        0.0000
     16 C         140.9807  143.4243  169.7824 C.ar    1  UNL1        0.0000
     17 C         142.4372  143.1179  169.9683 C.ar    1  UNL1        0.0000
     18 C         143.1619  142.2787  168.9580 C.ar    1  UNL1        0.0000
     19 C         142.4301  141.7459  167.7619 C.ar    1  UNL1        0.0000
     20 C         140.3120  145.5405  159.2441 C.3     1  UNL1        0.0488
     21 C         141.4970  145.4508  158.3288 C.3     1  UNL1        0.0212
     22 C         142.0373  144.1093  157.9308 C.3     1  UNL1        0.0722
     23 N         141.8930  142.9378  158.8565 N.3     1  UNL1       -0.2727
     24 C         140.6208  142.1433  158.8679 C.3     1  UNL1        0.0725
     25 C         140.4764  140.9719  159.7935 C.3     1  UNL1        0.0234
     26 C         141.6042  140.5950  160.7077 C.3     1  UNL1        0.0464
     27 C         142.8764  141.3895  160.6964 C.3     1  UNL1        0.0234
     28 C         143.0208  142.5610  159.7707 C.3     1  UNL1        0.0725
     29 C         141.4599  139.4235  161.6335 C.ar    1  UNL1        0.1003
     30 N         140.6773  138.1737  161.3585 N.ar    1  UNL1       -0.0814
     31 O         140.8065  137.2739  162.5516 O.2     1  UNL1       -0.3536
     32 C         141.6689  137.9677  163.5641 C.ar    1  UNL1        0.1787
     33 C         142.1387  137.5613  164.9294 C.ar    1  UNL1        0.0698
     34 C         143.0122  138.4834  165.7273 C.ar    1  UNL1        0.1433
     35 F         143.4820  138.0770  167.0927 F       1  UNL1       -0.2041
     36 C         143.4160  139.8120  165.1598 C.ar    1  UNL1        0.0299
     37 C         142.9462  140.2183  163.7944 C.ar    1  UNL1        0.0067
     38 C         142.0727  139.2962  162.9966 C.ar    1  UNL1        0.0540
@<TRIPOS>BOND
     1     3     4    2
     2     4     5   ar
     3     5     6   ar
     4     6    14    1
     5    14    15   ar
     6    15    16   ar
     7    16    17   ar
     8    17    18   ar
     9    18    19   ar
    10     6     7   ar
    11     7     8   ar
    12     8     9   ar
    13     9    10   ar
    14    10     2    1
    15     2     1    1
    16     1    20    1
    17    20    21    1
    18    21    22    1
    19    22    23    1
    20    23    24    1
    21    24    25    1
    22    25    26    1
    23    26    29    1
    24    29    30   ar
    25    30    31   ar
    26    31    32   ar
    27    32    33   ar
    28    33    34   ar
    29    34    35    1
    30    34    36   ar
    31    36    37   ar
    32    37    38   ar
    33    26    27    1
    34    27    28    1
    35    10    11   ar
    36    11    12   ar
    37    12    13   ar
    38    13     4   ar
    39    19    14   ar
    40    12     7   ar
    41    28    23    1
    42    38    29   ar
    43    38    32   ar
@<TRIPOS>MOLECULE
*****
 38 43 0 0 0
SMALL
GASTEIGER

@<TRIPOS>ATOM
      1 C         141.6023  145.5510  158.6721 C.3     1  UNL1        0.2054
      2 O         142.3156  144.3830  159.2862 O.3     1  UNL1       -0.4754
      3 O         138.2977  145.3856  165.8895 O.2     1  UNL1       -0.2445
      4 C         139.2844  144.6021  165.0754 C.ar    1  UNL1        0.3459
      5 C         139.9184  143.3693  165.6483 C.ar    1  UNL1        0.0824
      6 C         140.9050  142.5858  164.8343 C.ar    1  UNL1        0.0094
      7 C         141.2577  143.0351  163.4472 C.ar    1  UNL1        0.0351
      8 C         142.2443  142.2516  162.6332 C.ar    1  UNL1        0.0061
      9 C         142.5969  142.7010  161.2462 C.ar    1  UNL1        0.0371
     10 C         141.9629  143.9338  160.6733 C.ar    1  UNL1        0.1416
     11 C         140.9763  144.7172  161.4873 C.ar    1  UNL1        0.0745
     12 C         140.6237  144.2679  162.8743 C.ar    1  UNL1        0.1517
     13 O         139.6370  145.0514  163.6884 O.2     1  UNL1       -0.4209
     14 C         141.5390  141.3530  165.4072 C.ar    1  UNL1        0.0003
     15 C         142.4038  140.4838  164.5433 C.ar    1  UNL1        0.0000
     16 C         143.0378  139.2510  165.1163 C.ar    1  UNL1        0.0000
     17 C         142.8069  138.8874  166.5531 C.ar    1  UNL1        0.0000
     18 C         141.9421  139.7567  167.4171 C.ar    1  UNL1        0.0000
     19 C         141.3081  140.9896  166.8441 C.ar    1  UNL1        0.0000
     20 C         140.9731  145.4174  157.3170 C.3     1  UNL1        0.0488
     21 C         140.4807  144.0807  156.8471 C.3     1  UNL1        0.0212
     22 C         139.2695  143.4628  157.4803 C.3     1  UNL1        0.0722
     23 N         139.4298  142.3949  158.5215 N.3     1  UNL1       -0.2727
     24 C         140.4417  141.3047  158.3280 C.3     1  UNL1        0.0725
     25 C         140.6020  140.2368  159.3691 C.3     1  UNL1        0.0234
     26 C         139.7504  140.2592  160.6037 C.3     1  UNL1        0.0464
     27 C         138.7385  141.3494  160.7971 C.3     1  UNL1        0.0234
     28 C         138.5781  142.4172  159.7560 C.3     1  UNL1        0.0725
     29 C         139.9107  139.1912  161.6448 C.ar    1  UNL1        0.1003
     30 N         140.6626  137.9039  161.4790 N.ar    1  UNL1       -0.0814
     31 O         140.5639  137.1402  162.7662 O.2     1  UNL1       -0.3536
     32 C         139.7509  137.9556  163.7277 C.ar    1  UNL1        0.1787
     33 C         139.3260  137.7076  165.1447 C.ar    1  UNL1        0.0698
     34 C         138.4975  138.7270  165.8686 C.ar    1  UNL1        0.1433
     35 F         138.0726  138.4790  167.2857 F       1  UNL1       -0.2041
     36 C         138.0938  139.9947  165.1755 C.ar    1  UNL1        0.0299
     37 C         138.5187  140.2427  163.7585 C.ar    1  UNL1        0.0067
     38 C         139.3472  139.2231  163.0346 C.ar    1  UNL1        0.0540
@<TRIPOS>BOND
     1     3     4    2
     2     4     5   ar
     3     5     6   ar
     4     6    14    1
     5    14    15   ar
     6    15    16   ar
     7    16    17   ar
     8    17    18   ar
     9    18    19   ar
    10     6     7   ar
    11     7     8   ar
    12     8     9   ar
    13     9    10   ar
    14    10     2    1
    15     2     1    1
    16     1    20    1
    17    20    21    1
    18    21    22    1
    19    22    23    1
    20    23    24    1
    21    24    25    1
    22    25    26    1
    23    26    29    1
    24    29    30   ar
    25    30    31   ar
    26    31    32   ar
    27    32    33   ar
    28    33    34   ar
    29    34    35    1
    30    34    36   ar
    31    36    37   ar
    32    37    38   ar
    33    26    27    1
    34    27    28    1
    35    10    11   ar
    36    11    12   ar
    37    12    13   ar
    38    13     4   ar
    39    19    14   ar
    40    12     7   ar
    41    28    23    1
    42    38    29   ar
    43    38    32   ar
@<TRIPOS>MOLECULE
*****
 38 43 0 0 0
SMALL
GASTEIGER

@<TRIPOS>ATOM
      1 C         139.7644  139.4336  157.5479 C.3     1  UNL1        0.2054
      2 O         139.3655  138.4757  158.6310 O.3     1  UNL1       -0.4754
      3 O         138.2195  136.9890  166.1959 O.2     1  UNL1       -0.2445
      4 C         138.4407  137.9712  165.0840 C.ar    1  UNL1        0.3459
      5 C         138.5012  139.4401  165.3818 C.ar    1  UNL1        0.0824
      6 C         138.7224  140.4224  164.2700 C.ar    1  UNL1        0.0094
      7 C         138.8832  139.9357  162.8602 C.ar    1  UNL1        0.0351
      8 C         139.1044  140.9179  161.7483 C.ar    1  UNL1        0.0061
      9 C         139.2652  140.4313  160.3386 C.ar    1  UNL1        0.0371
     10 C         139.2047  138.9624  160.0408 C.ar    1  UNL1        0.1416
     11 C         138.9835  137.9802  161.1527 C.ar    1  UNL1        0.0745
     12 C         138.8227  138.4668  162.5623 C.ar    1  UNL1        0.1517
     13 O         138.6015  137.4846  163.6743 O.2     1  UNL1       -0.4209
     14 C         138.7828  141.8913  164.5678 C.ar    1  UNL1        0.0003
     15 C         137.5895  142.7602  164.3017 C.ar    1  UNL1        0.0000
     16 C         137.6499  144.2291  164.5995 C.ar    1  UNL1        0.0000
     17 C         138.9037  144.8290  165.1635 C.ar    1  UNL1        0.0000
     18 C         140.0971  143.9601  165.4296 C.ar    1  UNL1        0.0000
     19 C         140.0367  142.4912  165.1317 C.ar    1  UNL1        0.0000
     20 C         140.8046  139.0377  156.5422 C.3     1  UNL1        0.0488
     21 C         142.0915  139.8032  156.4534 C.3     1  UNL1        0.0212
     22 C         143.2467  139.4331  157.3357 C.3     1  UNL1        0.0722
     23 N         143.0576  139.3446  158.8212 N.3     1  UNL1       -0.2727
     24 C         143.0121  140.5957  159.6473 C.3     1  UNL1        0.0725
     25 C         142.8230  140.5072  161.1327 C.3     1  UNL1        0.0234
     26 C         142.6795  139.1676  161.7919 C.3     1  UNL1        0.0464
     27 C         142.7250  137.9164  160.9658 C.3     1  UNL1        0.0234
     28 C         142.9141  138.0049  159.4804 C.3     1  UNL1        0.0725
     29 C         142.4904  139.0790  163.2774 C.ar    1  UNL1        0.1003
     30 N         141.9295  137.9067  164.0264 N.ar    1  UNL1       -0.0814
     31 O         141.9214  138.2503  165.4865 O.2     1  UNL1       -0.3536
     32 C         142.4773  139.6350  165.6398 C.ar    1  UNL1        0.1787
     33 C         142.7088  140.4958  166.8462 C.ar    1  UNL1        0.0698
     34 C         143.2918  141.8686  166.6874 C.ar    1  UNL1        0.1433
     35 F         143.5233  142.7294  167.8940 F       1  UNL1       -0.2041
     36 C         143.6435  142.3808  165.3221 C.ar    1  UNL1        0.0299
     37 C         143.4120  141.5201  164.1156 C.ar    1  UNL1        0.0067
     38 C         142.8289  140.1472  164.2745 C.ar    1  UNL1        0.0540
@<TRIPOS>BOND
     1     3     4    2
     2     4     5   ar
     3     5     6   ar
     4     6    14    1
     5    14    15   ar
     6    15    16   ar
     7    16    17   ar
     8    17    18   ar
     9    18    19   ar
    10     6     7   ar
    11     7     8   ar
    12     8     9   ar
    13     9    10   ar
    14    10     2    1
    15     2     1    1
    16     1    20    1
    17    20    21    1
    18    21    22    1
    19    22    23    1
    20    23    24    1
    21    24    25    1
    22    25    26    1
    23    26    29    1
    24    29    30   ar
    25    30    31   ar
    26    31    32   ar
    27    32    33   ar
    28    33    34   ar
    29    34    35    1
    30    34    36   ar
    31    36    37   ar
    32    37    38   ar
    33    26    27    1
    34    27    28    1
    35    10    11   ar
    36    11    12   ar
    37    12    13   ar
    38    13     4   ar
    39    19    14   ar
    40    12     7   ar
    41    28    23    1
    42    38    29   ar
    43    38    32   ar
@<TRIPOS>MOLECULE
*****
 38 43 0 0 0
SMALL
GASTEIGER

@<TRIPOS>ATOM
      1 C         141.3342  138.3368  157.5467 C.3     1  UNL1        0.2054
      2 O         140.1437  139.1806  157.8940 O.3     1  UNL1       -0.4754
      3 O         138.7166  137.0929  165.2667 O.2     1  UNL1       -0.2445
      4 C         138.9296  138.1633  164.2376 C.ar    1  UNL1        0.3459
      5 C         138.8797  139.6083  164.6371 C.ar    1  UNL1        0.0824
      6 C         139.0927  140.6787  163.6082 C.ar    1  UNL1        0.0094
      7 C         139.3554  140.3042  162.1796 C.ar    1  UNL1        0.0351
      8 C         139.5683  141.3746  161.1506 C.ar    1  UNL1        0.0061
      9 C         139.8311  141.0001  159.7221 C.ar    1  UNL1        0.0371
     10 C         139.8809  139.5551  159.3226 C.ar    1  UNL1        0.1416
     11 C         139.6680  138.4847  160.3516 C.ar    1  UNL1        0.0745
     12 C         139.4053  138.8592  161.7801 C.ar    1  UNL1        0.1517
     13 O         139.1923  137.7888  162.8091 O.2     1  UNL1       -0.4209
     14 C         139.0428  142.1236  164.0077 C.ar    1  UNL1        0.0003
     15 C         140.3108  142.9191  164.1049 C.ar    1  UNL1        0.0000
     16 C         140.2609  144.3640  164.5044 C.ar    1  UNL1        0.0000
     17 C         138.9431  145.0136  164.8068 C.ar    1  UNL1        0.0000
     18 C         137.6751  144.2181  164.7096 C.ar    1  UNL1        0.0000
     19 C         137.7249  142.7732  164.3101 C.ar    1  UNL1        0.0000
     20 C         142.7105  138.7818  157.9440 C.3     1  UNL1        0.0488
     21 C         143.1523  138.6680  159.3729 C.3     1  UNL1        0.0212
     22 C         143.2577  139.8975  160.2255 C.3     1  UNL1        0.0722
     23 N         143.1744  139.7840  161.7190 N.3     1  UNL1       -0.2727
     24 C         143.4775  140.9746  162.5796 C.3     1  UNL1        0.0725
     25 C         143.3942  140.8611  164.0730 C.3     1  UNL1        0.0234
     26 C         143.0078  139.5572  164.7057 C.3     1  UNL1        0.0464
     27 C         142.7047  138.3667  163.8450 C.3     1  UNL1        0.0234
     28 C         142.7880  138.4801  162.3516 C.3     1  UNL1        0.0725
     29 C         142.9245  139.4437  166.1991 C.ar    1  UNL1        0.1003
     30 N         143.5865  138.3941  167.0418 N.ar    1  UNL1       -0.0814
     31 O         143.2358  138.6615  168.4755 O.2     1  UNL1       -0.3536
     32 C         142.3570  139.8765  168.5188 C.ar    1  UNL1        0.1787
     33 C         141.7071  140.6050  169.6576 C.ar    1  UNL1        0.0698
     34 C         140.8649  141.8169  169.3895 C.ar    1  UNL1        0.1433
     35 F         140.2150  142.5455  170.5284 F       1  UNL1       -0.2041
     36 C         140.6726  142.3003  167.9826 C.ar    1  UNL1        0.0299
     37 C         141.3224  141.5717  166.8438 C.ar    1  UNL1        0.0067
     38 C         142.1647  140.3598  167.1119 C.ar    1  UNL1        0.0540
@<TRIPOS>BOND
     1     3     4    2
     2     4     5   ar
     3     5     6   ar
     4     6    14    1
     5    14    15   ar
     6    15    16   ar
     7    16    17   ar
     8    17    18   ar
     9    18    19   ar
    10     6     7   ar
    11     7     8   ar
    12     8     9   ar
    13     9    10   ar
    14    10     2    1
    15     2     1    1
    16     1    20    1
    17    20    21    1
    18    21    22    1
    19    22    23    1
    20    23    24    1
    21    24    25    1
    22    25    26    1
    23    26    29    1
    24    29    30   ar
    25    30    31   ar
    26    31    32   ar
    27    32    33   ar
    28    33    34   ar
    29    34    35    1
    30    34    36   ar
    31    36    37   ar
    32    37    38   ar
    33    26    27    1
    34    27    28    1
    35    10    11   ar
    36    11    12   ar
    37    12    13   ar
    38    13     4   ar
    39    19    14   ar
    40    12     7   ar
    41    28    23    1
    42    38    29   ar
    43    38    32   ar
@<TRIPOS>MOLECULE
*****
 38 43 0 0 0
SMALL
GASTEIGER

@<TRIPOS>ATOM
      1 C         139.6455  144.0201  157.8613 C.3     1  UNL1        0.2054
      2 O         138.5952  143.2538  158.6094 O.3     1  UNL1       -0.4754
      3 O         143.1712  137.2465  160.5389 O.2     1  UNL1       -0.2445
      4 C         142.0475  138.1829  160.8715 C.ar    1  UNL1        0.3459
      5 C         141.3254  138.0530  162.1798 C.ar    1  UNL1        0.0824
      6 C         140.2017  138.9893  162.5124 C.ar    1  UNL1        0.0094
      7 C         139.8000  140.0555  161.5366 C.ar    1  UNL1        0.0351
      8 C         138.6763  140.9917  161.8692 C.ar    1  UNL1        0.0061
      9 C         138.2747  142.0578  160.8935 C.ar    1  UNL1        0.0371
     10 C         138.9968  142.1877  159.5851 C.ar    1  UNL1        0.1416
     11 C         140.1205  141.2514  159.2525 C.ar    1  UNL1        0.0745
     12 C         140.5221  140.1853  160.2283 C.ar    1  UNL1        0.1517
     13 O         141.6459  139.2490  159.8957 O.2     1  UNL1       -0.4209
     14 C         139.4796  138.8595  163.8207 C.ar    1  UNL1        0.0003
     15 C         139.2541  137.5038  164.4216 C.ar    1  UNL1        0.0000
     16 C         138.5320  137.3739  165.7299 C.ar    1  UNL1        0.0000
     17 C         138.0354  138.5998  166.4374 C.ar    1  UNL1        0.0000
     18 C         138.2609  139.9556  165.8365 C.ar    1  UNL1        0.0000
     19 C         138.9830  140.0855  164.5281 C.ar    1  UNL1        0.0000
     20 C         140.2264  145.2700  158.4534 C.3     1  UNL1        0.0488
     21 C         140.9334  145.2154  159.7751 C.3     1  UNL1        0.0212
     22 C         140.1749  145.4761  161.0427 C.3     1  UNL1        0.0722
     23 N         140.4584  144.6584  162.2680 N.3     1  UNL1       -0.2727
     24 C         139.7219  144.9396  163.5441 C.3     1  UNL1        0.0725
     25 C         140.0053  144.1221  164.7694 C.3     1  UNL1        0.0234
     26 C         141.0252  143.0234  164.7184 C.3     1  UNL1        0.0464
     27 C         141.7617  142.7422  163.4423 C.3     1  UNL1        0.0234
     28 C         141.4783  143.5598  162.2171 C.3     1  UNL1        0.0725
     29 C         141.3087  142.2058  165.9437 C.ar    1  UNL1        0.1003
     30 N         140.8502  142.5178  167.3374 N.ar    1  UNL1       -0.0814
     31 O         141.3585  141.4376  168.2455 O.2     1  UNL1       -0.3536
     32 C         142.1312  140.4578  167.4129 C.ar    1  UNL1        0.1787
     33 C         142.8589  139.1947  167.7664 C.ar    1  UNL1        0.0698
     34 C         143.5558  138.4064  166.6974 C.ar    1  UNL1        0.1433
     35 F         144.2835  137.1432  167.0509 F       1  UNL1       -0.2041
     36 C         143.5250  138.8811  165.2748 C.ar    1  UNL1        0.0299
     37 C         142.7973  140.1443  164.9213 C.ar    1  UNL1        0.0067
     38 C         142.1004  140.9326  165.9904 C.ar    1  UNL1        0.0540
@<TRIPOS>BOND
     1     3     4    2
     2     4     5   ar
     3     5     6   ar
     4     6    14    1
     5    14    15   ar
     6    15    16   ar
     7    16    17   ar
     8    17    18   ar
     9    18    19   ar
    10     6     7   ar
    11     7     8   ar
    12     8     9   ar
    13     9    10   ar
    14    10     2    1
    15     2     1    1
    16     1    20    1
    17    20    21    1
    18    21    22    1
    19    22    23    1
    20    23    24    1
    21    24    25    1
    22    25    26    1
    23    26    29    1
    24    29    30   ar
    25    30    31   ar
    26    31    32   ar
    27    32    33   ar
    28    33    34   ar
    29    34    35    1
    30    34    36   ar
    31    36    37   ar
    32    37    38   ar
    33    26    27    1
    34    27    28    1
    35    10    11   ar
    36    11    12   ar
    37    12    13   ar
    38    13     4   ar
    39    19    14   ar
    40    12     7   ar
    41    28    23    1
    42    38    29   ar
    43    38    32   ar
@<TRIPOS>MOLECULE
*****
 38 43 0 0 0
SMALL
GASTEIGER

@<TRIPOS>ATOM
      1 C         139.7764  138.6360  157.7791 C.3     1  UNL1        0.2054
      2 O         139.4683  138.0739  159.1352 O.3     1  UNL1       -0.4754
      3 O         137.6567  144.8585  162.5174 O.2     1  UNL1       -0.2445
      4 C         138.2717  143.4924  162.5933 C.ar    1  UNL1        0.3459
      5 C         138.8979  143.0219  163.8725 C.ar    1  UNL1        0.0824
      6 C         139.5129  141.6559  163.9485 C.ar    1  UNL1        0.0094
      7 C         139.5018  140.7604  162.7452 C.ar    1  UNL1        0.0351
      8 C         140.1168  139.3944  162.8211 C.ar    1  UNL1        0.0061
      9 C         140.1056  138.4989  161.6178 C.ar    1  UNL1        0.0371
     10 C         139.4794  138.9694  160.3386 C.ar    1  UNL1        0.1416
     11 C         138.8644  140.3354  160.2626 C.ar    1  UNL1        0.0745
     12 C         138.8756  141.2309  161.4659 C.ar    1  UNL1        0.1517
     13 O         138.2606  142.5969  161.3900 O.2     1  UNL1       -0.4209
     14 C         140.1391  141.1854  165.2278 C.ar    1  UNL1        0.0003
     15 C         141.5966  141.4303  165.4838 C.ar    1  UNL1        0.0000
     16 C         142.2228  140.9598  166.7631 C.ar    1  UNL1        0.0000
     17 C         141.3915  140.2444  167.7863 C.ar    1  UNL1        0.0000
     18 C         139.9339  139.9994  167.5302 C.ar    1  UNL1        0.0000
     19 C         139.3077  140.4699  166.2510 C.ar    1  UNL1        0.0000
     20 C         140.4093  137.7669  156.7331 C.3     1  UNL1        0.0488
     21 C         141.9032  137.6596  156.6506 C.3     1  UNL1        0.0212
     22 C         142.6861  137.1677  157.8317 C.3     1  UNL1        0.0722
     23 N         143.0992  138.1258  158.9094 N.3     1  UNL1       -0.2727
     24 C         143.2837  139.5798  158.5900 C.3     1  UNL1        0.0725
     25 C         143.6968  140.5379  159.6677 C.3     1  UNL1        0.0234
     26 C         143.9254  140.0420  161.0647 C.3     1  UNL1        0.0464
     27 C         143.7409  138.5881  161.3842 C.3     1  UNL1        0.0234
     28 C         143.3278  137.6300  160.3065 C.3     1  UNL1        0.0725
     29 C         144.3385  141.0001  162.1425 C.ar    1  UNL1        0.1003
     30 N         145.5241  140.8496  163.0489 N.ar    1  UNL1       -0.0814
     31 O         145.5569  142.0333  163.9697 O.2     1  UNL1       -0.3536
     32 C         144.3915  142.9154  163.6322 C.ar    1  UNL1        0.1787
     33 C         143.9187  144.2176  164.2073 C.ar    1  UNL1        0.0698
     34 C         142.6930  144.8812  163.6532 C.ar    1  UNL1        0.1433
     35 F         142.2202  146.1834  164.2284 F       1  UNL1       -0.2041
     36 C         141.9399  144.2426  162.5239 C.ar    1  UNL1        0.0299
     37 C         142.4127  142.9404  161.9488 C.ar    1  UNL1        0.0067
     38 C         143.6385  142.2768  162.5030 C.ar    1  UNL1        0.0540
@<TRIPOS>BOND
     1     3     4    2
     2     4     5   ar
     3     5     6   ar
     4     6    14    1
     5    14    15   ar
     6    15    16   ar
     7    16    17   ar
     8    17    18   ar
     9    18    19   ar
    10     6     7   ar
    11     7     8   ar
    12     8     9   ar
    13     9    10   ar
    14    10     2    1
    15     2     1    1
    16     1    20    1
    17    20    21    1
    18    21    22    1
    19    22    23    1
    20    23    24    1
    21    24    25    1
    22    25    26    1
    23    26    29    1
    24    29    30   ar
    25    30    31   ar
    26    31    32   ar
    27    32    33   ar
    28    33    34   ar
    29    34    35    1
    30    34    36   ar
    31    36    37   ar
    32    37    38   ar
    33    26    27    1
    34    27    28    1
    35    10    11   ar
    36    11    12   ar
    37    12    13   ar
    38    13     4   ar
    39    19    14   ar
    40    12     7   ar
    41    28    23    1
    42    38    29   ar
    43    38    32   ar
