@<TRIPOS>MOLECULE
*****
 31 34 0 0 0
SMALL
GASTEIGER

@<TRIPOS>ATOM
      1 C         140.7913  139.1414  163.7551 C.2     1  UNL1        0.0596
      2 C         141.4848  139.5885  162.5023 C.2     1  UNL1        0.0324
      3 C         140.9536  139.1737  161.1623 C.2     1  UNL1        0.0889
      4 N         141.4211  139.4578  159.7656 N.2     1  UNL1       -0.2236
      5 C         140.4854  138.7715  158.8151 C.2     1  UNL1        0.1859
      6 N         139.4396  138.0634  159.6243 N.2     1  UNL1       -0.2387
      7 C         139.7289  138.3119  161.0750 C.3     1  UNL1        0.1679
      8 C         139.0355  137.8649  162.3277 C.2     1  UNL1        0.0164
      9 C         139.5667  138.2797  163.6677 C.2     1  UNL1        0.0690
     10 CL        138.8732  137.8326  164.9205 Cl      1  UNL1       -0.0812
     11 N         142.3849  140.3857  167.7754 N.3     1  UNL1       -0.2698
     12 C         141.3928  141.2543  167.0603 C.3     1  UNL1        0.0938
     13 C         140.8616  140.8395  165.7203 C.3     1  UNL1        0.1081
     14 N         141.3225  139.5562  165.0952 N.pl3   1  UNL1       -0.3040
     15 C         142.3146  138.6876  165.8103 C.3     1  UNL1        0.1081
     16 C         142.8458  139.1024  167.1504 C.3     1  UNL1        0.0938
     17 C         143.2419  142.2405  169.3802 C.3     1  UNL1        0.0188
     18 C         142.9161  140.8004  169.1154 C.3     1  UNL1        0.0722
     19 S         140.5790  138.7902  157.3181 S.3     1  UNL1       -0.0777
     20 C         140.7938  137.5114  156.5641 C.3     1  UNL1        0.0462
     21 C         139.3804  137.8153  156.1643 C.3     1  UNL1        0.0113
     22 C         142.1327  137.6516  157.2258 C.3     1  UNL1        0.0121
     23 C         143.1954  136.6186  156.9946 C.3     1  UNL1        0.0204
     24 C         142.9193  135.4453  156.1017 C.3     1  UNL1        0.0716
     25 C         141.5804  135.3051  155.4401 C.3     1  UNL1        0.0204
     26 C         140.5177  136.3381  155.6712 C.3     1  UNL1        0.0121
     27 N         143.9820  134.4123  155.8706 N.am    1  UNL1       -0.3060
     28 C         143.8194  133.0305  156.4313 C.2     1  UNL1        0.2229
     29 C         144.8821  131.9975  156.2001 C.3     1  UNL1        0.0946
     30 O         142.5941  132.6819  157.2231 O.2     1  UNL1       -0.2751
     31 H         144.7862  134.6411  155.3508 H       1  UNL1        0.1494
@<TRIPOS>BOND
     1    17    18    1
     2    18    11    1
     3    11    12    1
     4    12    13    1
     5    13    14    1
     6    14     1    1
     7     1     2    2
     8     2     3    1
     9     3     4    2
    10     4     5    1
    11     5    19    1
    12    19    20    1
    13    20    21    1
    14    20    22    1
    15    22    23    1
    16    23    24    1
    17    24    27    1
    18    27    28   am
    19    28    29    1
    20    28    30    2
    21    24    25    1
    22    25    26    1
    23     5     6    2
    24     6     7    1
    25     7     8    1
    26     8     9    2
    27     9    10    1
    28    14    15    1
    29    15    16    1
    30    16    11    1
    31     9     1    1
    32     7     3    1
    33    26    20    1
    34    27    31    1
@<TRIPOS>MOLECULE
*****
 31 34 0 0 0
SMALL
GASTEIGER

@<TRIPOS>ATOM
      1 C         142.3498  143.3983  158.6113 C.2     1  UNL1        0.0596
      2 C         141.8386  142.4215  159.6286 C.2     1  UNL1        0.0324
      3 C         140.7360  142.8209  160.5639 C.2     1  UNL1        0.0889
      4 N         140.0327  142.0787  161.6613 N.2     1  UNL1       -0.2236
      5 C         139.0066  142.9961  162.2576 C.2     1  UNL1        0.1859
      6 N         139.0757  144.3052  161.5286 N.2     1  UNL1       -0.2387
      7 C         140.1446  144.1970  160.4818 C.3     1  UNL1        0.1679
      8 C         140.6558  145.1736  159.4645 C.2     1  UNL1        0.0164
      9 C         141.7584  144.7742  158.5293 C.2     1  UNL1        0.0690
     10 CL        142.2696  145.7509  157.5120 Cl      1  UNL1       -0.0812
     11 N         145.6577  142.2001  155.8055 N.3     1  UNL1       -0.2698
     12 C         144.2871  142.4893  155.2690 C.3     1  UNL1        0.0938
     13 C         143.1845  142.8886  156.2043 C.3     1  UNL1        0.1081
     14 N         143.4525  142.9988  157.6760 N.pl3   1  UNL1       -0.3040
     15 C         144.8231  142.7096  158.2125 C.3     1  UNL1        0.1081
     16 C         145.9257  142.3102  157.2772 C.3     1  UNL1        0.0938
     17 C         148.1883  141.8598  155.3258 C.3     1  UNL1        0.0188
     18 C         146.7603  141.8007  154.8703 C.3     1  UNL1        0.0722
     19 S         138.0748  142.6628  163.3849 S.3     1  UNL1       -0.0777
     20 C         138.5559  141.8262  164.5331 C.3     1  UNL1        0.0462
     21 C         137.7275  140.8122  163.8012 C.3     1  UNL1        0.0113
     22 C         139.2173  143.1307  164.8663 C.3     1  UNL1        0.0121
     23 C         140.0720  143.2465  166.0935 C.3     1  UNL1        0.0204
     24 C         140.2654  142.0576  166.9876 C.3     1  UNL1        0.0716
     25 C         139.6041  140.7532  166.6544 C.3     1  UNL1        0.0204
     26 C         138.7493  140.6374  165.4272 C.3     1  UNL1        0.0121
     27 N         141.1201  142.1734  168.2148 N.am    1  UNL1       -0.3060
     28 C         142.6149  142.1693  168.0907 C.2     1  UNL1        0.2229
     29 C         143.4698  142.2851  169.3179 C.3     1  UNL1        0.0946
     30 O         143.2550  142.0495  166.7394 O.2     1  UNL1       -0.2751
     31 H         140.7000  142.2521  169.1017 H       1  UNL1        0.1494
@<TRIPOS>BOND
     1    17    18    1
     2    18    11    1
     3    11    12    1
     4    12    13    1
     5    13    14    1
     6    14     1    1
     7     1     2    2
     8     2     3    1
     9     3     4    2
    10     4     5    1
    11     5    19    1
    12    19    20    1
    13    20    21    1
    14    20    22    1
    15    22    23    1
    16    23    24    1
    17    24    27    1
    18    27    28   am
    19    28    29    1
    20    28    30    2
    21    24    25    1
    22    25    26    1
    23     5     6    2
    24     6     7    1
    25     7     8    1
    26     8     9    2
    27     9    10    1
    28    14    15    1
    29    15    16    1
    30    16    11    1
    31     9     1    1
    32     7     3    1
    33    26    20    1
    34    27    31    1
@<TRIPOS>MOLECULE
*****
 31 34 0 0 0
SMALL
GASTEIGER

@<TRIPOS>ATOM
      1 C         139.0592  140.4360  158.8345 C.2     1  UNL1        0.0596
      2 C         138.6555  140.5806  160.2720 C.2     1  UNL1        0.0324
      3 C         139.1523  139.6002  161.2927 C.2     1  UNL1        0.0889
      4 N         138.9252  139.4890  162.7712 N.2     1  UNL1       -0.2236
      5 C         139.6852  138.2952  163.2684 C.2     1  UNL1        0.1859
      6 N         140.3821  137.6686  162.0971 N.2     1  UNL1       -0.2387
      7 C         140.0527  138.4752  160.8761 C.3     1  UNL1        0.1679
      8 C         140.4564  138.3306  159.4387 C.2     1  UNL1        0.0164
      9 C         139.9596  139.3110  158.4179 C.2     1  UNL1        0.0690
     10 CL        140.3633  139.1664  156.9804 Cl      1  UNL1       -0.0812
     11 N         137.5688  143.3772  155.7721 N.3     1  UNL1       -0.2698
     12 C         136.7453  142.1720  156.1174 C.3     1  UNL1        0.0938
     13 C         137.2421  141.1916  157.1382 C.3     1  UNL1        0.1081
     14 N         138.5624  141.4164  157.8136 N.pl3   1  UNL1       -0.3040
     15 C         139.3859  142.6216  157.4683 C.3     1  UNL1        0.1081
     16 C         138.8891  143.6020  156.4475 C.3     1  UNL1        0.0938
     17 C         136.6196  143.8744  153.4053 C.3     1  UNL1        0.0188
     18 C         137.0721  144.3576  154.7513 C.3     1  UNL1        0.0722
     19 S         139.7390  137.8126  164.6876 S.3     1  UNL1       -0.0777
     20 C         139.6463  138.7946  165.8177 C.3     1  UNL1        0.0462
     21 C         138.2565  138.2309  165.8477 C.3     1  UNL1        0.0113
     22 C         141.0682  139.0172  165.3952 C.3     1  UNL1        0.0121
     23 C         141.9148  140.0261  166.1132 C.3     1  UNL1        0.0204
     24 C         141.3394  140.8123  167.2537 C.3     1  UNL1        0.0716
     25 C         139.9175  140.5896  167.6762 C.3     1  UNL1        0.0204
     26 C         139.0709  139.5808  166.9582 C.3     1  UNL1        0.0121
     27 N         142.1860  141.8212  167.9717 N.am    1  UNL1       -0.3060
     28 C         143.0623  141.3905  169.1104 C.2     1  UNL1        0.2229
     29 C         143.9089  142.3993  169.8284 C.3     1  UNL1        0.0946
     30 O         143.0920  139.9510  169.5310 O.2     1  UNL1       -0.2751
     31 H         142.1665  142.7660  167.6956 H       1  UNL1        0.1494
@<TRIPOS>BOND
     1    17    18    1
     2    18    11    1
     3    11    12    1
     4    12    13    1
     5    13    14    1
     6    14     1    1
     7     1     2    2
     8     2     3    1
     9     3     4    2
    10     4     5    1
    11     5    19    1
    12    19    20    1
    13    20    21    1
    14    20    22    1
    15    22    23    1
    16    23    24    1
    17    24    27    1
    18    27    28   am
    19    28    29    1
    20    28    30    2
    21    24    25    1
    22    25    26    1
    23     5     6    2
    24     6     7    1
    25     7     8    1
    26     8     9    2
    27     9    10    1
    28    14    15    1
    29    15    16    1
    30    16    11    1
    31     9     1    1
    32     7     3    1
    33    26    20    1
    34    27    31    1
@<TRIPOS>MOLECULE
*****
 31 34 0 0 0
SMALL
GASTEIGER

@<TRIPOS>ATOM
      1 C         143.4806  140.6596  158.9565 C.2     1  UNL1        0.0596
      2 C         143.8031  139.7029  160.0660 C.2     1  UNL1        0.0324
      3 C         142.7441  139.3186  161.0563 C.2     1  UNL1        0.0889
      4 N         142.7666  138.4055  162.2461 N.2     1  UNL1       -0.2236
      5 C         141.3990  138.4134  162.8624 C.2     1  UNL1        0.1859
      6 N         140.5314  139.3315  162.0535 N.2     1  UNL1       -0.2387
      7 C         141.3627  139.8910  160.9373 C.3     1  UNL1        0.1679
      8 C         141.0403  140.8476  159.8278 C.2     1  UNL1        0.0164
      9 C         142.0992  141.2319  158.8375 C.2     1  UNL1        0.0690
     10 CL        141.7767  142.1886  157.7280 Cl      1  UNL1       -0.0812
     11 N         146.6575  141.8125  155.9853 N.3     1  UNL1       -0.2698
     12 C         145.7895  140.6164  155.7289 C.3     1  UNL1        0.0938
     13 C         144.7305  140.2321  156.7193 C.3     1  UNL1        0.1081
     14 N         144.5396  141.0440  157.9661 N.pl3   1  UNL1       -0.3040
     15 C         145.4077  142.2401  158.2225 C.3     1  UNL1        0.1081
     16 C         146.4666  142.6244  157.2321 C.3     1  UNL1        0.0938
     17 C         149.1436  141.7997  155.2308 C.3     1  UNL1        0.0188
     18 C         147.7165  142.1969  154.9949 C.3     1  UNL1        0.0722
     19 S         140.9738  137.6392  164.0747 S.3     1  UNL1       -0.0777
     20 C         140.1197  138.2927  165.1204 C.3     1  UNL1        0.0462
     21 C         139.0719  137.5235  164.3719 C.3     1  UNL1        0.0113
     22 C         141.4641  138.8350  165.5059 C.3     1  UNL1        0.0121
     23 C         141.5906  139.7637  166.6770 C.3     1  UNL1        0.0204
     24 C         140.3726  140.1500  167.4628 C.3     1  UNL1        0.0716
     25 C         139.0283  139.6077  167.0773 C.3     1  UNL1        0.0204
     26 C         138.9018  138.6791  165.9062 C.3     1  UNL1        0.0121
     27 N         140.4991  141.0787  168.6340 N.am    1  UNL1       -0.3060
     28 C         140.4797  142.5631  168.4195 C.2     1  UNL1        0.2229
     29 C         140.6062  143.4919  169.5906 C.3     1  UNL1        0.0946
     30 O         140.3337  143.1189  167.0339 O.2     1  UNL1       -0.2751
     31 H         140.5949  140.7139  169.5434 H       1  UNL1        0.1494
@<TRIPOS>BOND
     1    17    18    1
     2    18    11    1
     3    11    12    1
     4    12    13    1
     5    13    14    1
     6    14     1    1
     7     1     2    2
     8     2     3    1
     9     3     4    2
    10     4     5    1
    11     5    19    1
    12    19    20    1
    13    20    21    1
    14    20    22    1
    15    22    23    1
    16    23    24    1
    17    24    27    1
    18    27    28   am
    19    28    29    1
    20    28    30    2
    21    24    25    1
    22    25    26    1
    23     5     6    2
    24     6     7    1
    25     7     8    1
    26     8     9    2
    27     9    10    1
    28    14    15    1
    29    15    16    1
    30    16    11    1
    31     9     1    1
    32     7     3    1
    33    26    20    1
    34    27    31    1
@<TRIPOS>MOLECULE
*****
 31 34 0 0 0
SMALL
GASTEIGER

@<TRIPOS>ATOM
      1 C         139.8996  142.2510  163.8734 C.2     1  UNL1        0.0596
      2 C         140.3050  141.4891  162.6465 C.2     1  UNL1        0.0324
      3 C         139.6389  141.7733  161.3329 C.2     1  UNL1        0.0889
      4 N         139.8268  141.1878  159.9648 N.2     1  UNL1       -0.2236
      5 C         138.8715  141.8721  159.0325 C.2     1  UNL1        0.1859
      6 N         138.0931  142.8805  159.8245 N.2     1  UNL1       -0.2387
      7 C         138.5674  142.8195  161.2462 C.3     1  UNL1        0.1679
      8 C         138.1620  143.5814  162.4731 C.2     1  UNL1        0.0164
      9 C         138.8281  143.2971  163.7866 C.2     1  UNL1        0.0690
     10 CL        138.4227  144.0590  165.0135 Cl      1  UNL1       -0.0812
     11 N         141.8979  141.3982  167.8142 N.3     1  UNL1       -0.2698
     12 C         140.4818  140.9617  167.5813 C.3     1  UNL1        0.0938
     13 C         139.8157  141.2459  166.2678 C.3     1  UNL1        0.1081
     14 N         140.5657  141.9667  165.1870 N.pl3   1  UNL1       -0.3040
     15 C         141.9818  142.4032  165.4198 C.3     1  UNL1        0.1081
     16 C         142.6478  142.1189  166.7334 C.3     1  UNL1        0.0938
     17 C         143.4481  142.1480  169.7595 C.3     1  UNL1        0.0188
     18 C         142.5640  141.1139  169.1277 C.3     1  UNL1        0.0722
     19 S         138.7210  141.5963  157.5658 S.3     1  UNL1       -0.0777
     20 C         138.0726  142.6135  156.6741 C.3     1  UNL1        0.0462
     21 C         136.9318  141.6553  156.8487 C.3     1  UNL1        0.0113
     22 C         139.4386  143.2184  156.8091 C.3     1  UNL1        0.0121
     23 C         139.7601  144.5077  156.1132 C.3     1  UNL1        0.0204
     24 C         138.7156  145.1920  155.2821 C.3     1  UNL1        0.0716
     25 C         137.3497  144.5871  155.1471 C.3     1  UNL1        0.0204
     26 C         137.0281  143.2978  155.8431 C.3     1  UNL1        0.0121
     27 N         139.0371  146.4813  154.5861 N.am    1  UNL1       -0.3060
     28 C         139.1052  147.7592  155.3685 C.2     1  UNL1        0.2229
     29 C         139.4267  149.0486  154.6726 C.3     1  UNL1        0.0946
     30 O         138.8519  147.7479  156.8470 O.2     1  UNL1       -0.2751
     31 H         139.2033  146.4888  153.6158 H       1  UNL1        0.1494
@<TRIPOS>BOND
     1    17    18    1
     2    18    11    1
     3    11    12    1
     4    12    13    1
     5    13    14    1
     6    14     1    1
     7     1     2    2
     8     2     3    1
     9     3     4    2
    10     4     5    1
    11     5    19    1
    12    19    20    1
    13    20    21    1
    14    20    22    1
    15    22    23    1
    16    23    24    1
    17    24    27    1
    18    27    28   am
    19    28    29    1
    20    28    30    2
    21    24    25    1
    22    25    26    1
    23     5     6    2
    24     6     7    1
    25     7     8    1
    26     8     9    2
    27     9    10    1
    28    14    15    1
    29    15    16    1
    30    16    11    1
    31     9     1    1
    32     7     3    1
    33    26    20    1
    34    27    31    1
@<TRIPOS>MOLECULE
*****
 31 34 0 0 0
SMALL
GASTEIGER

@<TRIPOS>ATOM
      1 C         142.8015  137.9482  157.5592 C.2     1  UNL1        0.0596
      2 C         142.8678  137.4049  158.9558 C.2     1  UNL1        0.0324
      3 C         143.3092  138.2890  160.0843 C.2     1  UNL1        0.0889
      4 N         143.4721  138.0350  161.5536 N.2     1  UNL1       -0.2236
      5 C         143.9479  139.3054  162.1936 C.2     1  UNL1        0.1859
      6 N         144.0790  140.3446  161.1199 N.2     1  UNL1       -0.2387
      7 C         143.6843  139.7164  159.8162 C.3     1  UNL1        0.1679
      8 C         143.6180  140.2596  158.4196 C.2     1  UNL1        0.0164
      9 C         143.1766  139.3755  157.2912 C.2     1  UNL1        0.0690
     10 CL        143.1103  139.9189  155.8945 Cl      1  UNL1       -0.0812
     11 N         141.4772  135.2959  154.1736 N.3     1  UNL1       -0.2698
     12 C         142.9289  135.3713  154.5437 C.3     1  UNL1        0.0938
     13 C         143.3703  136.2554  155.6722 C.3     1  UNL1        0.1081
     14 N         142.3600  137.0641  156.4306 N.pl3   1  UNL1       -0.3040
     15 C         140.9084  136.9887  156.0606 C.3     1  UNL1        0.1081
     16 C         140.4670  136.1046  154.9321 C.3     1  UNL1        0.0938
     17 C         141.3266  132.9409  153.0868 C.3     1  UNL1        0.0188
     18 C         141.0357  134.4119  153.0452 C.3     1  UNL1        0.0722
     19 S         144.2410  139.5022  163.6515 S.3     1  UNL1       -0.0777
     20 C         143.9709  140.8282  164.2985 C.3     1  UNL1        0.0462
     21 C         145.4595  140.9163  164.1357 C.3     1  UNL1        0.0113
     22 C         142.5762  140.2797  164.2367 C.3     1  UNL1        0.0121
     23 C         141.4283  141.0877  164.7652 C.3     1  UNL1        0.0204
     24 C         141.6752  142.4444  165.3557 C.3     1  UNL1        0.0716
     25 C         143.0699  142.9929  165.4176 C.3     1  UNL1        0.0204
     26 C         144.2178  142.1848  164.8890 C.3     1  UNL1        0.0121
     27 N         140.5272  143.2524  165.8843 N.am    1  UNL1       -0.3060
     28 C         139.7150  144.1009  164.9515 C.2     1  UNL1        0.2229
     29 C         138.5670  144.9090  165.4800 C.3     1  UNL1        0.0946
     30 O         140.0506  144.1413  163.4900 O.2     1  UNL1       -0.2751
     31 H         140.3070  143.2259  166.8435 H       1  UNL1        0.1494
@<TRIPOS>BOND
     1    17    18    1
     2    18    11    1
     3    11    12    1
     4    12    13    1
     5    13    14    1
     6    14     1    1
     7     1     2    2
     8     2     3    1
     9     3     4    2
    10     4     5    1
    11     5    19    1
    12    19    20    1
    13    20    21    1
    14    20    22    1
    15    22    23    1
    16    23    24    1
    17    24    27    1
    18    27    28   am
    19    28    29    1
    20    28    30    2
    21    24    25    1
    22    25    26    1
    23     5     6    2
    24     6     7    1
    25     7     8    1
    26     8     9    2
    27     9    10    1
    28    14    15    1
    29    15    16    1
    30    16    11    1
    31     9     1    1
    32     7     3    1
    33    26    20    1
    34    27    31    1
@<TRIPOS>MOLECULE
*****
 31 34 0 0 0
SMALL
GASTEIGER

@<TRIPOS>ATOM
      1 C         142.8630  137.9362  158.0759 C.2     1  UNL1        0.0596
      2 C         143.0647  137.3727  159.4514 C.2     1  UNL1        0.0324
      3 C         143.4714  138.2744  160.5790 C.2     1  UNL1        0.0889
      4 N         143.7421  138.0073  162.0300 N.2     1  UNL1       -0.2236
      5 C         144.1143  139.3074  162.6790 C.2     1  UNL1        0.1859
      6 N         144.0736  140.3780  161.6291 N.2     1  UNL1       -0.2387
      7 C         143.6763  139.7395  160.3312 C.3     1  UNL1        0.1679
      8 C         143.4745  140.3030  158.9558 C.2     1  UNL1        0.0164
      9 C         143.0679  139.4013  157.8281 C.2     1  UNL1        0.0690
     10 CL        142.8662  139.9648  156.4527 Cl      1  UNL1       -0.0812
     11 N         141.6431  135.2312  154.6928 N.3     1  UNL1       -0.2698
     12 C         140.6210  136.0993  155.3649 C.3     1  UNL1        0.0938
     13 C         141.0276  137.0010  156.4925 C.3     1  UNL1        0.1081
     14 N         142.4564  137.0345  156.9482 N.pl3   1  UNL1       -0.3040
     15 C         143.4785  136.1664  156.2761 C.3     1  UNL1        0.1081
     16 C         143.0718  135.2647  155.1485 C.3     1  UNL1        0.0938
     17 C         141.5177  134.7288  152.1469 C.3     1  UNL1        0.0188
     18 C         141.2365  134.3295  153.5652 C.3     1  UNL1        0.0722
     19 S         144.4655  139.5027  164.1241 S.3     1  UNL1       -0.0777
     20 C         143.6974  140.4862  164.9564 C.3     1  UNL1        0.0462
     21 C         144.7998  141.3724  164.4571 C.3     1  UNL1        0.0113
     22 C         142.8617  139.2584  165.1666 C.3     1  UNL1        0.0121
     23 C         141.6408  139.3218  166.0357 C.3     1  UNL1        0.0204
     24 C         141.2555  140.6132  166.6945 C.3     1  UNL1        0.0716
     25 C         142.0912  141.8409  166.4843 C.3     1  UNL1        0.0204
     26 C         143.3121  141.7775  165.6152 C.3     1  UNL1        0.0121
     27 N         140.0346  140.6767  167.5636 N.am    1  UNL1       -0.3060
     28 C         140.1178  140.2689  169.0047 C.2     1  UNL1        0.2229
     29 C         138.8969  140.3323  169.8739 C.3     1  UNL1        0.0946
     30 O         141.4220  139.7977  169.5767 O.2     1  UNL1       -0.2751
     31 H         139.1786  140.9859  167.1882 H       1  UNL1        0.1494
@<TRIPOS>BOND
     1    17    18    1
     2    18    11    1
     3    11    12    1
     4    12    13    1
     5    13    14    1
     6    14     1    1
     7     1     2    2
     8     2     3    1
     9     3     4    2
    10     4     5    1
    11     5    19    1
    12    19    20    1
    13    20    21    1
    14    20    22    1
    15    22    23    1
    16    23    24    1
    17    24    27    1
    18    27    28   am
    19    28    29    1
    20    28    30    2
    21    24    25    1
    22    25    26    1
    23     5     6    2
    24     6     7    1
    25     7     8    1
    26     8     9    2
    27     9    10    1
    28    14    15    1
    29    15    16    1
    30    16    11    1
    31     9     1    1
    32     7     3    1
    33    26    20    1
    34    27    31    1
@<TRIPOS>MOLECULE
*****
 31 34 0 0 0
SMALL
GASTEIGER

@<TRIPOS>ATOM
      1 C         140.9823  139.5915  162.2211 C.2     1  UNL1        0.0596
      2 C         142.1614  139.1477  161.4069 C.2     1  UNL1        0.0324
      3 C         141.9597  138.6406  160.0097 C.2     1  UNL1        0.0889
      4 N         142.9231  138.1380  158.9756 N.2     1  UNL1       -0.2236
      5 C         142.1378  137.7640  157.7535 C.2     1  UNL1        0.1859
      6 N         140.6891  138.0355  158.0323 N.2     1  UNL1       -0.2387
      7 C         140.5791  138.5772  159.4267 C.3     1  UNL1        0.1679
      8 C         139.4001  139.0210  160.2410 C.2     1  UNL1        0.0164
      9 C         139.6018  139.5282  161.6381 C.2     1  UNL1        0.0690
     10 CL        138.4227  139.9720  162.4524 Cl      1  UNL1       -0.0812
     11 N         141.5872  141.1129  166.4127 N.3     1  UNL1       -0.2698
     12 C         141.2028  139.6814  166.1826 C.3     1  UNL1        0.0938
     13 C         141.0012  139.1743  164.7854 C.3     1  UNL1        0.1081
     14 N         141.1839  140.0987  163.6184 N.pl3   1  UNL1       -0.3040
     15 C         141.5683  141.5302  163.8485 C.3     1  UNL1        0.1081
     16 C         141.7699  142.0373  165.2456 C.3     1  UNL1        0.0938
     17 C         143.0639  142.3196  168.1771 C.3     1  UNL1        0.0188
     18 C         141.7888  141.6201  167.8099 C.3     1  UNL1        0.0722
     19 S         142.7021  137.2150  156.4767 S.3     1  UNL1       -0.0777
     20 C         142.3409  135.8287  156.0321 C.3     1  UNL1        0.0462
     21 C         141.6284  136.6321  154.9847 C.3     1  UNL1        0.0113
     22 C         143.1788  135.5068  157.2339 C.3     1  UNL1        0.0121
     23 C         143.4080  134.0775  157.6273 C.3     1  UNL1        0.0204
     24 C         142.7993  132.9703  156.8188 C.3     1  UNL1        0.0716
     25 C         141.9615  133.2923  155.6171 C.3     1  UNL1        0.0204
     26 C         141.7322  134.7215  155.2237 C.3     1  UNL1        0.0121
     27 N         143.0286  131.5410  157.2123 N.am    1  UNL1       -0.3060
     28 C         144.3258  130.8686  156.8729 C.2     1  UNL1        0.2229
     29 C         144.5552  129.4394  157.2663 C.3     1  UNL1        0.0946
     30 O         145.3937  131.6254  156.1402 O.2     1  UNL1       -0.2751
     31 H         142.3277  131.0443  157.6932 H       1  UNL1        0.1494
@<TRIPOS>BOND
     1    17    18    1
     2    18    11    1
     3    11    12    1
     4    12    13    1
     5    13    14    1
     6    14     1    1
     7     1     2    2
     8     2     3    1
     9     3     4    2
    10     4     5    1
    11     5    19    1
    12    19    20    1
    13    20    21    1
    14    20    22    1
    15    22    23    1
    16    23    24    1
    17    24    27    1
    18    27    28   am
    19    28    29    1
    20    28    30    2
    21    24    25    1
    22    25    26    1
    23     5     6    2
    24     6     7    1
    25     7     8    1
    26     8     9    2
    27     9    10    1
    28    14    15    1
    29    15    16    1
    30    16    11    1
    31     9     1    1
    32     7     3    1
    33    26    20    1
    34    27    31    1
@<TRIPOS>MOLECULE
*****
 31 34 0 0 0
SMALL
GASTEIGER

@<TRIPOS>ATOM
      1 C         138.8069  142.4993  157.9150 C.2     1  UNL1        0.0596
      2 C         138.7176  142.2852  159.3970 C.2     1  UNL1        0.0324
      3 C         139.3530  143.2671  160.3362 C.2     1  UNL1        0.0889
      4 N         139.4290  143.3192  161.8333 N.2     1  UNL1       -0.2236
      5 C         140.2005  144.5474  162.2158 C.2     1  UNL1        0.1859
      6 N         140.6013  145.2544  160.9551 N.2     1  UNL1       -0.2387
      7 C         140.0775  144.4632  159.7934 C.3     1  UNL1        0.1679
      8 C         140.1667  144.6772  158.3114 C.2     1  UNL1        0.0164
      9 C         139.5313  143.6953  157.3723 C.2     1  UNL1        0.0690
     10 CL        139.6206  143.9094  155.8902 Cl      1  UNL1       -0.0812
     11 N         136.9007  139.5534  155.0974 N.3     1  UNL1       -0.2698
     12 C         136.0962  140.6937  155.6473 C.3     1  UNL1        0.0938
     13 C         136.7315  141.6757  156.5864 C.3     1  UNL1        0.1081
     14 N         138.1715  141.5173  156.9757 N.pl3   1  UNL1       -0.3040
     15 C         138.9760  140.3770  156.4259 C.3     1  UNL1        0.1081
     16 C         138.3407  139.3950  155.4867 C.3     1  UNL1        0.0938
     17 C         137.1060  137.5301  153.4806 C.3     1  UNL1        0.0188
     18 C         136.2655  138.5714  154.1582 C.3     1  UNL1        0.0722
     19 S         140.5158  144.9907  163.6137 S.3     1  UNL1       -0.0777
     20 C         140.4645  144.0046  164.7429 C.3     1  UNL1        0.0462
     21 C         139.1585  144.7113  164.9547 C.3     1  UNL1        0.0113
     22 C         141.7884  143.6404  164.1389 C.3     1  UNL1        0.0121
     23 C         142.6074  142.5355  164.7376 C.3     1  UNL1        0.0204
     24 C         142.1025  141.7948  165.9403 C.3     1  UNL1        0.0716
     25 C         140.7787  142.1591  166.5443 C.3     1  UNL1        0.0204
     26 C         139.9597  143.2640  165.9456 C.3     1  UNL1        0.0121
     27 N         142.9215  140.6899  166.5390 N.am    1  UNL1       -0.3060
     28 C         142.8595  139.3095  165.9553 C.2     1  UNL1        0.2229
     29 C         143.6785  138.2046  166.5539 C.3     1  UNL1        0.0946
     30 O         141.9786  139.0341  164.7728 O.2     1  UNL1       -0.2751
     31 H         143.4996  140.8707  167.3151 H       1  UNL1        0.1494
@<TRIPOS>BOND
     1    17    18    1
     2    18    11    1
     3    11    12    1
     4    12    13    1
     5    13    14    1
     6    14     1    1
     7     1     2    2
     8     2     3    1
     9     3     4    2
    10     4     5    1
    11     5    19    1
    12    19    20    1
    13    20    21    1
    14    20    22    1
    15    22    23    1
    16    23    24    1
    17    24    27    1
    18    27    28   am
    19    28    29    1
    20    28    30    2
    21    24    25    1
    22    25    26    1
    23     5     6    2
    24     6     7    1
    25     7     8    1
    26     8     9    2
    27     9    10    1
    28    14    15    1
    29    15    16    1
    30    16    11    1
    31     9     1    1
    32     7     3    1
    33    26    20    1
    34    27    31    1
