@<TRIPOS>MOLECULE
*****
 32 37 0 0 0
SMALL
GASTEIGER

@<TRIPOS>ATOM
      1 C         142.5456  136.7093  157.6883 C.3     1  UNL1        0.1161
      2 C         143.2745  135.4146  157.4823 C.3     1  UNL1        0.0510
      3 C         142.9058  134.5205  156.3358 C.2     1  UNL1       -0.0044
      4 C         141.8082  134.9211  155.3952 C.2     1  UNL1        0.0689
      5 N         141.6668  133.8431  154.3618 N.2     1  UNL1       -0.2526
      6 C         142.6770  132.7761  154.6638 C.2     1  UNL1        0.0627
      7 C         142.9986  131.4775  153.9855 C.3     1  UNL1        0.0717
      8 C         144.0859  130.5976  154.5272 C.2     1  UNL1       -0.0198
      9 C         144.8516  131.0163  155.7472 C.2     1  UNL1       -0.0042
     10 C         144.5301  132.3149  156.4255 C.2     1  UNL1        0.0006
     11 C         143.4428  133.1948  155.8838 C.2     1  UNL1        0.0111
     12 C         141.0793  136.2159  155.6011 C.3     1  UNL1        0.0947
     13 N         141.4480  137.1099  156.7477 N.3     1  UNL1       -0.2887
     14 H         140.6060  137.2286  157.3111 H       1  UNL1        0.1239
     15 C         143.2574  138.4516  161.0829 C.ar    1  UNL1        0.0947
     16 C         143.7061  139.5068  160.1159 C.ar    1  UNL1        0.1187
     17 N         143.4941  138.9826  158.7265 N.ar    1  UNL1       -0.2282
     18 C         142.9143  137.6034  158.8350 C.ar    1  UNL1        0.1318
     19 N         142.7680  137.2752  160.2912 N.ar    1  UNL1       -0.3385
     20 H         142.4132  136.4352  160.6623 H       1  UNL1        0.1672
     21 C         143.3611  138.7607  165.5711 C.ar    1  UNL1        0.0207
     22 C         144.4740  139.3458  164.7531 C.ar    1  UNL1        0.0032
     23 C         144.4394  139.2427  163.2571 C.ar    1  UNL1        0.0207
     24 C         143.2919  138.5546  162.5790 C.ar    1  UNL1        0.0984
     25 N         142.1790  137.9696  163.3970 N.ar    1  UNL1       -0.2423
     26 C         142.2136  138.0726  164.8930 C.ar    1  UNL1        0.0989
     27 C         139.9817  136.6165  154.6605 C.3     1  UNL1        0.0202
     28 C         140.1596  136.4399  153.1817 C.3     1  UNL1        0.0017
     29 C         139.0619  136.8405  152.2411 C.3     1  UNL1        0.0001
     30 C         137.7864  137.4178  152.7794 C.3     1  UNL1        0.0000
     31 C         137.6085  137.5945  154.2584 C.3     1  UNL1        0.0001
     32 C         138.7061  137.1938  155.1989 C.3     1  UNL1        0.0017
@<TRIPOS>BOND
     1    21    22   ar
     2    22    23   ar
     3    23    24   ar
     4    24    15    1
     5    15    16   ar
     6    16    17   ar
     7    17    18   ar
     8     1    18    1
     9     1     2    1
    10     2     3    1
    11     3     4    2
    12     4     5    1
    13     5     6    2
    14     6     7    1
    15     7     8    1
    16     8     9    2
    17     9    10    1
    18    10    11    2
    19     4    12    1
    20    12    27    1
    21    27    28    1
    22    28    29    1
    23    29    30    1
    24    30    31    1
    25    31    32    1
    26    12    13    1
    27    18    19   ar
    28    24    25   ar
    29    25    26   ar
    30    26    21   ar
    31    19    15   ar
    32    13     1    1
    33    11     3    1
    34    32    27    1
    35    11     6    1
    36    13    14    1
    37    19    20    1
@<TRIPOS>MOLECULE
*****
 32 37 0 0 0
SMALL
GASTEIGER

@<TRIPOS>ATOM
      1 C         141.8830  139.6749  161.2320 C.3     1  UNL1        0.1161
      2 C         140.9262  138.9003  162.0891 C.3     1  UNL1        0.0510
      3 C         140.5744  139.3989  163.4594 C.2     1  UNL1       -0.0044
      4 C         141.1793  140.6720  163.9725 C.2     1  UNL1        0.0689
      5 N         140.6477  140.9138  165.3541 N.2     1  UNL1       -0.2526
      6 C         139.7142  139.7902  165.6949 C.2     1  UNL1        0.0627
      7 C         138.8996  139.4987  166.9202 C.3     1  UNL1        0.0717
      8 C         138.0397  138.2709  166.9745 C.2     1  UNL1       -0.0198
      9 C         137.9944  137.3346  165.8034 C.2     1  UNL1       -0.0042
     10 C         138.8090  137.6261  164.5781 C.2     1  UNL1        0.0006
     11 C         139.6689  138.8539  164.5239 C.2     1  UNL1        0.0111
     12 C         142.1361  141.4465  163.1154 C.3     1  UNL1        0.0947
     13 N         142.4879  140.9480  161.7451 N.3     1  UNL1       -0.2887
     14 H         143.4998  140.8206  161.7289 H       1  UNL1        0.1239
     15 C         142.7100  137.7017  157.9935 C.ar    1  UNL1        0.0947
     16 C         142.8424  139.1163  157.5127 C.ar    1  UNL1        0.1187
     17 N         142.5487  140.0277  158.6673 N.ar    1  UNL1       -0.2282
     18 C         142.2348  139.1763  159.8617 C.ar    1  UNL1        0.1318
     19 N         142.3345  137.7387  159.4453 N.ar    1  UNL1       -0.3385
     20 H         142.1804  136.9568  160.0233 H       1  UNL1        0.1672
     21 C         143.3303  133.9969  155.5156 C.ar    1  UNL1        0.0207
     22 C         143.0073  135.3005  154.8476 C.ar    1  UNL1        0.0032
     23 C         142.8005  136.5354  155.6736 C.ar    1  UNL1        0.0207
     24 C         142.9168  136.4667  157.1675 C.ar    1  UNL1        0.0984
     25 N         143.2398  135.1631  157.8354 N.ar    1  UNL1       -0.2423
     26 C         143.4466  133.9282  157.0095 C.ar    1  UNL1        0.0989
     27 C         142.7410  142.7196  163.6285 C.3     1  UNL1        0.0202
     28 C         143.9268  142.6701  164.5457 C.3     1  UNL1        0.0017
     29 C         144.5317  143.9433  165.0588 C.3     1  UNL1        0.0001
     30 C         143.9508  145.2659  164.6546 C.3     1  UNL1        0.0000
     31 C         142.7649  145.3153  163.7374 C.3     1  UNL1        0.0001
     32 C         142.1601  144.0423  163.2243 C.3     1  UNL1        0.0017
@<TRIPOS>BOND
     1    21    22   ar
     2    22    23   ar
     3    23    24   ar
     4    24    15    1
     5    15    16   ar
     6    16    17   ar
     7    17    18   ar
     8     1    18    1
     9     1     2    1
    10     2     3    1
    11     3     4    2
    12     4     5    1
    13     5     6    2
    14     6     7    1
    15     7     8    1
    16     8     9    2
    17     9    10    1
    18    10    11    2
    19     4    12    1
    20    12    27    1
    21    27    28    1
    22    28    29    1
    23    29    30    1
    24    30    31    1
    25    31    32    1
    26    12    13    1
    27    18    19   ar
    28    24    25   ar
    29    25    26   ar
    30    26    21   ar
    31    19    15   ar
    32    13     1    1
    33    11     3    1
    34    32    27    1
    35    11     6    1
    36    13    14    1
    37    19    20    1
@<TRIPOS>MOLECULE
*****
 32 37 0 0 0
SMALL
GASTEIGER

@<TRIPOS>ATOM
      1 C         140.5187  139.6973  161.0641 C.3     1  UNL1        0.1161
      2 C         139.7774  139.0513  162.1969 C.3     1  UNL1        0.0510
      3 C         139.8284  139.6565  163.5685 C.2     1  UNL1       -0.0044
      4 C         140.6206  140.9077  163.8071 C.2     1  UNL1        0.0689
      5 N         140.4864  141.2719  165.2560 N.2     1  UNL1       -0.2526
      6 C         139.6112  140.2459  165.9128 C.2     1  UNL1        0.0627
      7 C         139.1320  140.0918  167.3258 C.3     1  UNL1        0.0717
      8 C         138.2461  138.9393  167.6958 C.2     1  UNL1       -0.0198
      9 C         137.8394  137.9409  166.6528 C.2     1  UNL1       -0.0042
     10 C         138.3186  138.0951  165.2398 C.2     1  UNL1        0.0006
     11 C         139.2045  139.2475  164.8698 C.2     1  UNL1        0.0111
     12 C         141.3619  141.5536  162.6743 C.3     1  UNL1        0.0947
     13 N         141.3110  140.9484  161.3028 N.3     1  UNL1       -0.2887
     14 H         142.2737  140.7427  161.0357 H       1  UNL1        0.1239
     15 C         141.0668  137.8578  157.6904 C.ar    1  UNL1        0.0947
     16 C         139.7117  138.4634  157.4736 C.ar    1  UNL1        0.1187
     17 N         139.3414  139.2261  158.7109 N.ar    1  UNL1       -0.2282
     18 C         140.4677  139.0920  159.6925 C.ar    1  UNL1        0.1318
     19 N         141.5340  138.2464  159.0619 N.ar    1  UNL1       -0.3385
     20 H         142.3902  137.9912  159.4754 H       1  UNL1        0.1672
     21 C         143.3326  135.3211  154.7441 C.ar    1  UNL1        0.0207
     22 C         141.8352  135.2520  154.7975 C.ar    1  UNL1        0.0032
     23 C         141.0799  136.0975  155.7796 C.ar    1  UNL1        0.0207
     24 C         141.8221  137.0122  156.7083 C.ar    1  UNL1        0.0984
     25 N         143.3195  137.0813  156.6549 N.ar    1  UNL1       -0.2423
     26 C         144.0748  136.2357  155.6728 C.ar    1  UNL1        0.0989
     27 C         142.1542  142.8047  162.9130 C.3     1  UNL1        0.0202
     28 C         143.6376  142.8068  162.6911 C.3     1  UNL1        0.0017
     29 C         144.4299  144.0580  162.9299 C.3     1  UNL1        0.0001
     30 C         143.7387  145.3070  163.3904 C.3     1  UNL1        0.0000
     31 C         142.2552  145.3049  163.6123 C.3     1  UNL1        0.0001
     32 C         141.4630  144.0538  163.3736 C.3     1  UNL1        0.0017
@<TRIPOS>BOND
     1    21    22   ar
     2    22    23   ar
     3    23    24   ar
     4    24    15    1
     5    15    16   ar
     6    16    17   ar
     7    17    18   ar
     8     1    18    1
     9     1     2    1
    10     2     3    1
    11     3     4    2
    12     4     5    1
    13     5     6    2
    14     6     7    1
    15     7     8    1
    16     8     9    2
    17     9    10    1
    18    10    11    2
    19     4    12    1
    20    12    27    1
    21    27    28    1
    22    28    29    1
    23    29    30    1
    24    30    31    1
    25    31    32    1
    26    12    13    1
    27    18    19   ar
    28    24    25   ar
    29    25    26   ar
    30    26    21   ar
    31    19    15   ar
    32    13     1    1
    33    11     3    1
    34    32    27    1
    35    11     6    1
    36    13    14    1
    37    19    20    1
@<TRIPOS>MOLECULE
*****
 32 37 0 0 0
SMALL
GASTEIGER

@<TRIPOS>ATOM
      1 C         141.3537  139.3169  161.3552 C.3     1  UNL1        0.1161
      2 C         140.4535  138.6324  162.3406 C.3     1  UNL1        0.0510
      3 C         140.2022  139.2522  163.6832 C.2     1  UNL1       -0.0044
      4 C         140.8512  140.5565  164.0404 C.2     1  UNL1        0.0689
      5 N         140.4194  140.9240  165.4291 N.2     1  UNL1       -0.2526
      6 C         139.5035  139.8469  165.9302 C.2     1  UNL1        0.0627
      7 C         138.7745  139.6734  167.2295 C.3     1  UNL1        0.0717
      8 C         137.9113  138.4667  167.4498 C.2     1  UNL1       -0.0198
      9 C         137.7770  137.4335  166.3708 C.2     1  UNL1       -0.0042
     10 C         138.5060  137.6069  165.0714 C.2     1  UNL1        0.0006
     11 C         139.3693  138.8136  164.8511 C.2     1  UNL1        0.0111
     12 C         141.7514  141.2410  163.0550 C.3     1  UNL1        0.0947
     13 N         142.0027  140.6212  161.7124 N.3     1  UNL1       -0.2887
     14 H         143.0100  140.4791  161.6375 H       1  UNL1        0.1239
     15 C         141.2813  137.8819  157.7495 C.ar    1  UNL1        0.0947
     16 C         142.7018  137.6045  158.1433 C.ar    1  UNL1        0.1187
     17 N         142.9019  138.1083  159.5419 N.ar    1  UNL1       -0.2282
     18 C         141.6050  138.6970  160.0125 C.ar    1  UNL1        0.1318
     19 N         140.6034  138.5571  158.9047 N.ar    1  UNL1       -0.3385
     20 H         139.6657  138.8559  158.9312 H       1  UNL1        0.1672
     21 C         139.3861  136.8666  153.7963 C.ar    1  UNL1        0.0207
     22 C         140.8727  136.7584  153.9652 C.ar    1  UNL1        0.0032
     23 C         141.5043  137.0969  155.2829 C.ar    1  UNL1        0.0207
     24 C         140.6495  137.5434  156.4317 C.ar    1  UNL1        0.0984
     25 N         139.1630  137.6515  156.2629 N.ar    1  UNL1       -0.2423
     26 C         138.5313  137.3131  154.9452 C.ar    1  UNL1        0.0989
     27 C         142.4004  142.5453  163.4122 C.3     1  UNL1        0.0202
     28 C         141.7592  143.8385  163.0045 C.3     1  UNL1        0.0017
     29 C         142.4083  145.1428  163.3618 C.3     1  UNL1        0.0001
     30 C         143.6985  145.1538  164.1267 C.3     1  UNL1        0.0000
     31 C         144.3398  143.8605  164.5344 C.3     1  UNL1        0.0001
     32 C         143.6907  142.5563  164.1772 C.3     1  UNL1        0.0017
@<TRIPOS>BOND
     1    21    22   ar
     2    22    23   ar
     3    23    24   ar
     4    24    15    1
     5    15    16   ar
     6    16    17   ar
     7    17    18   ar
     8     1    18    1
     9     1     2    1
    10     2     3    1
    11     3     4    2
    12     4     5    1
    13     5     6    2
    14     6     7    1
    15     7     8    1
    16     8     9    2
    17     9    10    1
    18    10    11    2
    19     4    12    1
    20    12    27    1
    21    27    28    1
    22    28    29    1
    23    29    30    1
    24    30    31    1
    25    31    32    1
    26    12    13    1
    27    18    19   ar
    28    24    25   ar
    29    25    26   ar
    30    26    21   ar
    31    19    15   ar
    32    13     1    1
    33    11     3    1
    34    32    27    1
    35    11     6    1
    36    13    14    1
    37    19    20    1
@<TRIPOS>MOLECULE
*****
 32 37 0 0 0
SMALL
GASTEIGER

@<TRIPOS>ATOM
      1 C         139.9033  143.7506  158.3432 C.3     1  UNL1        0.1161
      2 C         140.5954  142.4384  158.1213 C.3     1  UNL1        0.0510
      3 C         140.9155  141.5525  159.2886 C.2     1  UNL1       -0.0044
      4 C         140.5435  141.9788  160.6778 C.2     1  UNL1        0.0689
      5 N         140.9844  140.9035  161.6262 N.2     1  UNL1       -0.2526
      6 C         141.6288  139.8127  160.8232 C.2     1  UNL1        0.0627
      7 C         142.2488  138.5060  161.2208 C.3     1  UNL1        0.0717
      8 C         142.8262  137.6005  160.1737 C.2     1  UNL1       -0.0198
      9 C         142.7836  138.0015  158.7290 C.2     1  UNL1       -0.0042
     10 C         142.1636  139.3082  158.3313 C.2     1  UNL1        0.0006
     11 C         141.5862  140.2138  159.3784 C.2     1  UNL1        0.0111
     12 C         139.8515  143.2910  160.8997 C.3     1  UNL1        0.0947
     13 N         139.5314  144.1769  159.7324 N.3     1  UNL1       -0.2887
     14 H         139.9984  145.0677  159.9020 H       1  UNL1        0.1239
     15 C         139.2971  146.6003  155.7786 C.ar    1  UNL1        0.0947
     16 C         138.8842  145.3993  154.9804 C.ar    1  UNL1        0.1187
     17 N         139.0610  144.1856  155.8439 N.ar    1  UNL1       -0.2282
     18 C         139.5832  144.6365  157.1758 C.ar    1  UNL1        0.1318
     19 N         139.7291  146.1288  157.1355 N.ar    1  UNL1       -0.3385
     20 H         140.0517  146.6988  157.8705 H       1  UNL1        0.1672
     21 C         139.2483  150.8682  154.3530 C.ar    1  UNL1        0.0207
     22 C         139.9278  149.8115  153.5335 C.ar    1  UNL1        0.0032
     23 C         139.9440  148.3889  154.0087 C.ar    1  UNL1        0.0207
     24 C         139.2808  148.0230  155.3034 C.ar    1  UNL1        0.0984
     25 N         138.6014  149.0797  156.1229 N.ar    1  UNL1       -0.2423
     26 C         138.5851  150.5023  155.6477 C.ar    1  UNL1        0.0989
     27 C         139.4796  143.7173  162.2890 C.3     1  UNL1        0.0202
     28 C         138.0540  143.6235  162.7459 C.3     1  UNL1        0.0017
     29 C         137.6821  144.0498  164.1352 C.3     1  UNL1        0.0001
     30 C         138.7358  144.5699  165.0674 C.3     1  UNL1        0.0000
     31 C         140.1615  144.6637  164.6105 C.3     1  UNL1        0.0001
     32 C         140.5333  144.2374  163.2213 C.3     1  UNL1        0.0017
@<TRIPOS>BOND
     1    21    22   ar
     2    22    23   ar
     3    23    24   ar
     4    24    15    1
     5    15    16   ar
     6    16    17   ar
     7    17    18   ar
     8     1    18    1
     9     1     2    1
    10     2     3    1
    11     3     4    2
    12     4     5    1
    13     5     6    2
    14     6     7    1
    15     7     8    1
    16     8     9    2
    17     9    10    1
    18    10    11    2
    19     4    12    1
    20    12    27    1
    21    27    28    1
    22    28    29    1
    23    29    30    1
    24    30    31    1
    25    31    32    1
    26    12    13    1
    27    18    19   ar
    28    24    25   ar
    29    25    26   ar
    30    26    21   ar
    31    19    15   ar
    32    13     1    1
    33    11     3    1
    34    32    27    1
    35    11     6    1
    36    13    14    1
    37    19    20    1
@<TRIPOS>MOLECULE
*****
 32 37 0 0 0
SMALL
GASTEIGER

@<TRIPOS>ATOM
      1 C         139.3888  139.7734  157.6698 C.3     1  UNL1        0.1161
      2 C         139.0595  139.6795  159.1302 C.3     1  UNL1        0.0510
      3 C         138.7508  140.9226  159.9109 C.2     1  UNL1       -0.0044
      4 C         138.7716  142.2596  159.2312 C.2     1  UNL1        0.0689
      5 N         138.4276  143.3037  160.2517 N.2     1  UNL1       -0.2526
      6 C         138.1943  142.6120  161.5621 C.2     1  UNL1        0.0627
      7 C         137.8258  143.1320  162.9199 C.3     1  UNL1        0.0717
      8 C         137.6570  142.1805  164.0671 C.2     1  UNL1       -0.0198
      9 C         137.8568  140.7088  163.8564 C.2     1  UNL1       -0.0042
     10 C         138.2253  140.1888  162.4986 C.2     1  UNL1        0.0006
     11 C         138.3941  141.1403  161.3515 C.2     1  UNL1        0.0111
     12 C         139.1010  142.3535  157.7708 C.3     1  UNL1        0.0947
     13 N         139.4096  141.1104  156.9901 N.3     1  UNL1       -0.2887
     14 H         140.3462  141.2301  156.6042 H       1  UNL1        0.1239
     15 C         140.7936  136.5155  156.0957 C.ar    1  UNL1        0.0947
     16 C         139.5514  136.7193  155.2799 C.ar    1  UNL1        0.1187
     17 N         138.8740  137.9646  155.7703 N.ar    1  UNL1       -0.2282
     18 C         139.6975  138.5303  156.8891 C.ar    1  UNL1        0.1318
     19 N         140.8839  137.6347  157.0902 N.ar    1  UNL1       -0.3385
     20 H         141.5966  137.7596  157.7578 H       1  UNL1        0.1672
     21 C         143.7331  133.1389  155.6395 C.ar    1  UNL1        0.0207
     22 C         142.6052  133.2885  154.6621 C.ar    1  UNL1        0.0032
     23 C         141.6253  134.4140  154.8142 C.ar    1  UNL1        0.0207
     24 C         141.7735  135.3899  155.9436 C.ar    1  UNL1        0.0984
     25 N         142.9014  135.2403  156.9210 N.ar    1  UNL1       -0.2423
     26 C         143.8812  134.1148  156.7689 C.ar    1  UNL1        0.0989
     27 C         139.1217  143.6905  157.0911 C.3     1  UNL1        0.0202
     28 C         138.1793  143.9707  155.9584 C.3     1  UNL1        0.0017
     29 C         138.2001  145.3078  155.2787 C.3     1  UNL1        0.0001
     30 C         139.1634  146.3646  155.7318 C.3     1  UNL1        0.0000
     31 C         140.1059  146.0843  156.8646 C.3     1  UNL1        0.0001
     32 C         140.0850  144.7474  157.5442 C.3     1  UNL1        0.0017
@<TRIPOS>BOND
     1    21    22   ar
     2    22    23   ar
     3    23    24   ar
     4    24    15    1
     5    15    16   ar
     6    16    17   ar
     7    17    18   ar
     8     1    18    1
     9     1     2    1
    10     2     3    1
    11     3     4    2
    12     4     5    1
    13     5     6    2
    14     6     7    1
    15     7     8    1
    16     8     9    2
    17     9    10    1
    18    10    11    2
    19     4    12    1
    20    12    27    1
    21    27    28    1
    22    28    29    1
    23    29    30    1
    24    30    31    1
    25    31    32    1
    26    12    13    1
    27    18    19   ar
    28    24    25   ar
    29    25    26   ar
    30    26    21   ar
    31    19    15   ar
    32    13     1    1
    33    11     3    1
    34    32    27    1
    35    11     6    1
    36    13    14    1
    37    19    20    1
@<TRIPOS>MOLECULE
*****
 32 37 0 0 0
SMALL
GASTEIGER

@<TRIPOS>ATOM
      1 C         143.3766  140.2031  158.0844 C.3     1  UNL1        0.1161
      2 C         143.9298  140.2085  159.4787 C.3     1  UNL1        0.0510
      3 C         143.8030  141.4362  160.3310 C.2     1  UNL1       -0.0044
      4 C         143.1232  142.6586  159.7891 C.2     1  UNL1        0.0689
      5 N         143.1473  143.7134  160.8552 N.2     1  UNL1       -0.2526
      6 C         143.8420  143.1430  162.0561 C.2     1  UNL1        0.0627
      7 C         144.1579  143.7233  163.4027 C.3     1  UNL1        0.0717
      8 C         144.8790  142.8962  164.4253 C.2     1  UNL1       -0.0198
      9 C         145.2843  141.4888  164.1013 C.2     1  UNL1       -0.0042
     10 C         144.9684  140.9085  162.7547 C.2     1  UNL1        0.0006
     11 C         144.2473  141.7356  161.7321 C.2     1  UNL1        0.0111
     12 C         142.5701  142.6532  158.3948 C.3     1  UNL1        0.0947
     13 N         142.6968  141.4254  157.5424 N.3     1  UNL1       -0.2887
     14 H         143.2094  141.7003  156.7045 H       1  UNL1        0.1239
     15 C         143.3200  136.6907  156.4335 C.ar    1  UNL1        0.0947
     16 C         144.0767  137.4810  155.4074 C.ar    1  UNL1        0.1187
     17 N         144.1900  138.8930  155.9009 N.ar    1  UNL1       -0.2282
     18 C         143.5034  138.9752  157.2320 C.ar    1  UNL1        0.1318
     19 N         142.9657  137.6142  157.5611 N.ar    1  UNL1       -0.3385
     20 H         142.4677  137.3699  158.3745 H       1  UNL1        0.1672
     21 C         142.2931  132.3171  156.1742 C.ar    1  UNL1        0.0207
     22 C         141.5124  133.3193  155.3767 C.ar    1  UNL1        0.0032
     23 C         141.8547  134.7772  155.4631 C.ar    1  UNL1        0.0207
     24 C         142.9777  135.2328  156.3471 C.ar    1  UNL1        0.0984
     25 N         143.7584  134.2305  157.1445 N.ar    1  UNL1       -0.2423
     26 C         143.4161  132.7727  157.0581 C.ar    1  UNL1        0.0989
     27 C         141.8903  143.8755  157.8528 C.3     1  UNL1        0.0202
     28 C         140.7786  144.5204  158.6261 C.3     1  UNL1        0.0017
     29 C         140.0988  145.7428  158.0841 C.3     1  UNL1        0.0001
     30 C         140.5307  146.3202  156.7688 C.3     1  UNL1        0.0000
     31 C         141.6425  145.6752  155.9955 C.3     1  UNL1        0.0001
     32 C         142.3222  144.4529  156.5375 C.3     1  UNL1        0.0017
@<TRIPOS>BOND
     1    21    22   ar
     2    22    23   ar
     3    23    24   ar
     4    24    15    1
     5    15    16   ar
     6    16    17   ar
     7    17    18   ar
     8     1    18    1
     9     1     2    1
    10     2     3    1
    11     3     4    2
    12     4     5    1
    13     5     6    2
    14     6     7    1
    15     7     8    1
    16     8     9    2
    17     9    10    1
    18    10    11    2
    19     4    12    1
    20    12    27    1
    21    27    28    1
    22    28    29    1
    23    29    30    1
    24    30    31    1
    25    31    32    1
    26    12    13    1
    27    18    19   ar
    28    24    25   ar
    29    25    26   ar
    30    26    21   ar
    31    19    15   ar
    32    13     1    1
    33    11     3    1
    34    32    27    1
    35    11     6    1
    36    13    14    1
    37    19    20    1
@<TRIPOS>MOLECULE
*****
 32 37 0 0 0
SMALL
GASTEIGER

@<TRIPOS>ATOM
      1 C         142.7047  139.1068  159.0181 C.3     1  UNL1        0.1161
      2 C         142.1444  140.4689  158.7339 C.3     1  UNL1        0.0510
      3 C         141.8618  141.4143  159.8636 C.2     1  UNL1       -0.0044
      4 C         142.1396  140.9977  161.2776 C.2     1  UNL1        0.0689
      5 N         141.7626  142.1360  162.1787 N.2     1  UNL1       -0.2526
      6 C         141.2519  143.2561  161.3218 C.2     1  UNL1        0.0627
      7 C         140.7389  144.6246  161.6595 C.3     1  UNL1        0.0717
      8 C         140.2872  145.5471  160.5663 C.2     1  UNL1       -0.0198
      9 C         140.3486  145.1011  159.1355 C.2     1  UNL1       -0.0042
     10 C         140.8615  143.7326  158.7978 C.2     1  UNL1        0.0006
     11 C         141.3132  142.8101  159.8909 C.2     1  UNL1        0.0111
     12 C         142.6999  139.6356  161.5618 C.3     1  UNL1        0.0947
     13 N         142.9824  138.6901  160.4321 N.3     1  UNL1       -0.2887
     14 H         142.4299  137.8505  160.6056 H       1  UNL1        0.1239
     15 C         143.1012  136.1492  156.5360 C.ar    1  UNL1        0.0947
     16 C         143.7427  137.2637  155.7638 C.ar    1  UNL1        0.1187
     17 N         143.6723  138.5072  156.5996 N.ar    1  UNL1       -0.2282
     18 C         142.9872  138.1613  157.8883 C.ar    1  UNL1        0.1318
     19 N         142.6343  136.7040  157.8491 N.ar    1  UNL1       -0.3385
     20 H         142.1765  136.2001  158.5603 H       1  UNL1        0.1672
     21 C         142.6556  131.8893  155.1558 C.ar    1  UNL1        0.0207
     22 C         142.6270  133.0081  154.1572 C.ar    1  UNL1        0.0032
     23 C         142.7755  134.4281  154.6172 C.ar    1  UNL1        0.0207
     24 C         142.9527  134.7292  156.0760 C.ar    1  UNL1        0.0984
     25 N         142.9813  133.6104  157.0747 N.ar    1  UNL1       -0.2423
     26 C         142.8328  132.1905  156.6146 C.ar    1  UNL1        0.0989
     27 C         142.9777  139.2189  162.9757 C.3     1  UNL1        0.0202
     28 C         144.3161  139.5004  163.5914 C.3     1  UNL1        0.0017
     29 C         144.5939  139.0837  165.0054 C.3     1  UNL1        0.0001
     30 C         143.5331  138.3855  165.8036 C.3     1  UNL1        0.0000
     31 C         142.1945  138.1040  165.1880 C.3     1  UNL1        0.0001
     32 C         141.9168  138.5207  163.7741 C.3     1  UNL1        0.0017
@<TRIPOS>BOND
     1    21    22   ar
     2    22    23   ar
     3    23    24   ar
     4    24    15    1
     5    15    16   ar
     6    16    17   ar
     7    17    18   ar
     8     1    18    1
     9     1     2    1
    10     2     3    1
    11     3     4    2
    12     4     5    1
    13     5     6    2
    14     6     7    1
    15     7     8    1
    16     8     9    2
    17     9    10    1
    18    10    11    2
    19     4    12    1
    20    12    27    1
    21    27    28    1
    22    28    29    1
    23    29    30    1
    24    30    31    1
    25    31    32    1
    26    12    13    1
    27    18    19   ar
    28    24    25   ar
    29    25    26   ar
    30    26    21   ar
    31    19    15   ar
    32    13     1    1
    33    11     3    1
    34    32    27    1
    35    11     6    1
    36    13    14    1
    37    19    20    1
@<TRIPOS>MOLECULE
*****
 32 37 0 0 0
SMALL
GASTEIGER

@<TRIPOS>ATOM
      1 C         142.8366  139.1159  158.0128 C.3     1  UNL1        0.1161
      2 C         142.1292  140.3173  157.4593 C.3     1  UNL1        0.0510
      3 C         142.0887  141.5929  158.2473 C.2     1  UNL1       -0.0044
      4 C         142.7554  141.6672  159.5889 C.2     1  UNL1        0.0689
      5 N         142.5508  143.0503  160.1323 N.2     1  UNL1       -0.2526
      6 C         141.7576  143.8308  159.1265 C.2     1  UNL1        0.0627
      7 C         141.2585  145.2453  159.1209 C.3     1  UNL1        0.0717
      8 C         140.4738  145.7591  157.9504 C.2     1  UNL1       -0.0198
      9 C         140.1882  144.8584  156.7854 C.2     1  UNL1       -0.0042
     10 C         140.6873  143.4439  156.7910 C.2     1  UNL1        0.0006
     11 C         141.4720  142.9301  157.9615 C.2     1  UNL1        0.0111
     12 C         143.4628  140.4658  160.1425 C.3     1  UNL1        0.0947
     13 N         143.5033  139.1902  159.3544 N.3     1  UNL1       -0.2887
     14 H         143.0745  138.4707  159.9366 H       1  UNL1        0.1239
     15 C         143.0543  135.4903  156.6442 C.ar    1  UNL1        0.0947
     16 C         142.8246  136.2641  155.3799 C.ar    1  UNL1        0.1187
     17 N         142.7151  137.7164  155.7387 N.ar    1  UNL1       -0.2282
     18 C         142.8771  137.8402  157.2247 C.ar    1  UNL1        0.1318
     19 N         143.0867  136.4645  157.7844 N.ar    1  UNL1       -0.3385
     20 H         143.2219  136.2402  158.7335 H       1  UNL1        0.1672
     21 C         143.5578  131.0298  156.9612 C.ar    1  UNL1        0.0207
     22 C         144.5228  131.9447  157.6552 C.ar    1  UNL1        0.0032
     23 C         144.3550  133.4315  157.5495 C.ar    1  UNL1        0.0207
     24 C         143.2221  134.0034  156.7499 C.ar    1  UNL1        0.0984
     25 N         142.2571  133.0886  156.0559 N.ar    1  UNL1       -0.2423
     26 C         142.4249  131.6018  156.1616 C.ar    1  UNL1        0.0989
     27 C         144.1295  140.5401  161.4841 C.3     1  UNL1        0.0202
     28 C         143.9809  139.4100  162.4590 C.3     1  UNL1        0.0017
     29 C         144.6477  139.4843  163.8007 C.3     1  UNL1        0.0001
     30 C         145.4631  140.6887  164.1673 C.3     1  UNL1        0.0000
     31 C         145.6118  141.8189  163.1923 C.3     1  UNL1        0.0001
     32 C         144.9450  141.7446  161.8507 C.3     1  UNL1        0.0017
@<TRIPOS>BOND
     1    21    22   ar
     2    22    23   ar
     3    23    24   ar
     4    24    15    1
     5    15    16   ar
     6    16    17   ar
     7    17    18   ar
     8     1    18    1
     9     1     2    1
    10     2     3    1
    11     3     4    2
    12     4     5    1
    13     5     6    2
    14     6     7    1
    15     7     8    1
    16     8     9    2
    17     9    10    1
    18    10    11    2
    19     4    12    1
    20    12    27    1
    21    27    28    1
    22    28    29    1
    23    29    30    1
    24    30    31    1
    25    31    32    1
    26    12    13    1
    27    18    19   ar
    28    24    25   ar
    29    25    26   ar
    30    26    21   ar
    31    19    15   ar
    32    13     1    1
    33    11     3    1
    34    32    27    1
    35    11     6    1
    36    13    14    1
    37    19    20    1
