@<TRIPOS>MOLECULE
*****
 29 33 0 0 0
SMALL
GASTEIGER

@<TRIPOS>ATOM
      1 C         143.6631  139.5742  162.3402 C.3     1  UNL1        0.0181
      2 C         143.5914  139.7113  160.8482 C.3     1  UNL1        0.0036
      3 C         143.3996  139.5588  159.3683 C.3     1  UNL1        0.0227
      4 C         142.8104  138.2030  159.1144 C.3     1  UNL1        0.0884
      5 C         142.6380  137.5174  160.4374 C.3     1  UNL1        0.0227
      6 C         143.1207  138.4496  161.5089 C.3     1  UNL1        0.0036
      7 N         142.4558  137.6329  157.7731 N.ar    1  UNL1       -0.2964
      8 C         141.7051  138.3410  156.6845 C.ar    1  UNL1        0.1796
      9 N         141.5750  137.4002  155.5236 N.ar    1  UNL1       -0.2223
     10 C         142.2453  136.1106  155.8945 C.ar    1  UNL1        0.1171
     11 C         142.4304  134.8240  155.1460 C.ar    1  UNL1        0.0238
     12 C         143.1598  133.6812  155.7878 C.ar    1  UNL1        0.0223
     13 C         143.7041  133.8250  157.1781 C.ar    1  UNL1        0.1006
     14 N         143.5191  135.1116  157.9266 N.ar    1  UNL1       -0.2252
     15 C         142.7897  136.2544  157.2849 C.ar    1  UNL1        0.1627
     16 C         144.0177  140.1444  163.6815 C.3     1  UNL1        0.0718
     17 N         142.9475  140.3665  164.7087 N.am    1  UNL1       -0.3025
     18 C         142.7775  139.3932  165.8373 C.2     1  UNL1        0.2458
     19 O         143.6778  138.1977  165.9387 O.2     1  UNL1       -0.2701
     20 H         142.3566  141.1511  164.6422 H       1  UNL1        0.1497
     21 C         141.7072  139.6154  166.8646 C.ar    1  UNL1        0.0534
     22 C         142.0821  139.8993  168.2889 C.ar    1  UNL1        0.0054
     23 C         141.0119  140.1214  169.3162 C.ar    1  UNL1        0.0115
     24 C         139.5667  140.0597  168.9190 C.ar    1  UNL1        0.0577
     25 CL        138.4965  140.2819  169.9463 Cl      1  UNL1       -0.0822
     26 C         139.1918  139.7758  167.4947 C.ar    1  UNL1        0.0115
     27 C         140.2620  139.5536  166.4674 C.ar    1  UNL1        0.0054
     28 C         145.9857  141.8395  163.6213 C.3     1  UNL1        0.0017
     29 C         145.4426  140.4924  163.9956 C.3     1  UNL1        0.0196
@<TRIPOS>BOND
     1    28    29    1
     2    29    16    1
     3    16    17    1
     4    17    18   am
     5    18    19    2
     6    18    21    1
     7    21    22   ar
     8    22    23   ar
     9    23    24   ar
    10    24    25    1
    11    24    26   ar
    12    26    27   ar
    13     1    16    1
    14     1     2    1
    15     2     3    1
    16     3     4    1
    17     4     7    1
    18     7     8   ar
    19     8     9   ar
    20     9    10   ar
    21    10    11   ar
    22    11    12   ar
    23    12    13   ar
    24    13    14   ar
    25    14    15   ar
    26     4     5    1
    27     6     5    1
    28    27    21   ar
    29     6     1    1
    30     6     2    1
    31    15     7   ar
    32    15    10   ar
    33    17    20    1
@<TRIPOS>MOLECULE
*****
 29 33 0 0 0
SMALL
GASTEIGER

@<TRIPOS>ATOM
      1 C         137.2988  142.6698  156.1921 C.3     1  UNL1        0.0181
      2 C         137.7832  142.4881  157.6001 C.3     1  UNL1        0.0036
      3 C         138.4853  142.5166  158.9253 C.3     1  UNL1        0.0227
      4 C         139.6278  143.4832  158.8240 C.3     1  UNL1        0.0884
      5 C         139.6319  144.0522  157.4361 C.3     1  UNL1        0.0227
      6 C         138.4919  143.4372  156.6797 C.3     1  UNL1        0.0036
      7 N         140.5963  143.8214  159.9184 N.ar    1  UNL1       -0.2964
      8 C         142.0904  143.8621  159.7921 C.ar    1  UNL1        0.1796
      9 N         142.6582  144.2442  161.1268 N.ar    1  UNL1       -0.2223
     10 C         141.5150  144.4396  162.0781 C.ar    1  UNL1        0.1171
     11 C         141.4698  144.8217  163.5279 C.ar    1  UNL1        0.0238
     12 C         140.1502  144.9425  164.2308 C.ar    1  UNL1        0.0223
     13 C         138.8759  144.6812  163.4839 C.ar    1  UNL1        0.1006
     14 N         138.9211  144.2991  162.0342 N.ar    1  UNL1       -0.2252
     15 C         140.2407  144.1783  161.3313 C.ar    1  UNL1        0.1627
     16 C         136.3304  142.3316  155.0978 C.3     1  UNL1        0.0718
     17 N         134.9187  141.9537  155.4358 N.am    1  UNL1       -0.3025
     18 C         134.5615  140.5148  155.6634 C.2     1  UNL1        0.2458
     19 O         135.6159  139.4537  155.5530 O.2     1  UNL1       -0.2701
     20 H         134.2266  142.6501  155.5083 H       1  UNL1        0.1497
     21 C         133.1497  140.1369  156.0015 C.ar    1  UNL1        0.0534
     22 C         132.0299  141.0955  155.7244 C.ar    1  UNL1        0.0054
     23 C         130.6181  140.7176  156.0624 C.ar    1  UNL1        0.0115
     24 C         130.3263  139.3811  156.6776 C.ar    1  UNL1        0.0577
     25 CL        128.9146  139.0032  157.0156 Cl      1  UNL1       -0.0822
     26 C         131.4462  138.4224  156.9547 C.ar    1  UNL1        0.0115
     27 C         132.8579  138.8002  156.6167 C.ar    1  UNL1        0.0054
     28 C         136.4682  143.5711  152.8186 C.3     1  UNL1        0.0017
     29 C         136.7736  142.3712  153.6652 C.3     1  UNL1        0.0196
@<TRIPOS>BOND
     1    28    29    1
     2    29    16    1
     3    16    17    1
     4    17    18   am
     5    18    19    2
     6    18    21    1
     7    21    22   ar
     8    22    23   ar
     9    23    24   ar
    10    24    25    1
    11    24    26   ar
    12    26    27   ar
    13     1    16    1
    14     1     2    1
    15     2     3    1
    16     3     4    1
    17     4     7    1
    18     7     8   ar
    19     8     9   ar
    20     9    10   ar
    21    10    11   ar
    22    11    12   ar
    23    12    13   ar
    24    13    14   ar
    25    14    15   ar
    26     4     5    1
    27     6     5    1
    28    27    21   ar
    29     6     1    1
    30     6     2    1
    31    15     7   ar
    32    15    10   ar
    33    17    20    1
@<TRIPOS>MOLECULE
*****
 29 33 0 0 0
SMALL
GASTEIGER

@<TRIPOS>ATOM
      1 C         142.0960  137.5301  157.3997 C.3     1  UNL1        0.0181
      2 C         142.9236  136.4206  156.8214 C.3     1  UNL1        0.0036
      3 C         143.4922  135.2489  156.0771 C.3     1  UNL1        0.0227
      4 C         142.4278  134.7198  155.1624 C.3     1  UNL1        0.0884
      5 C         141.2011  135.5644  155.3412 C.3     1  UNL1        0.0227
      6 C         141.5075  136.6155  156.3665 C.3     1  UNL1        0.0036
      7 N         142.5656  133.5513  154.2320 N.ar    1  UNL1       -0.2964
      8 C         141.9346  133.4237  152.8773 C.ar    1  UNL1        0.1796
      9 N         142.3377  132.0987  152.3011 N.ar    1  UNL1       -0.2223
     10 C         143.2180  131.4075  153.2998 C.ar    1  UNL1        0.1171
     11 C         143.9094  130.0766  153.2767 C.ar    1  UNL1        0.0238
     12 C         144.7417  129.6434  154.4470 C.ar    1  UNL1        0.0223
     13 C         144.8825  130.5412  155.6404 C.ar    1  UNL1        0.1006
     14 N         144.1911  131.8721  155.6635 N.ar    1  UNL1       -0.2252
     15 C         143.3588  132.3052  154.4932 C.ar    1  UNL1        0.1627
     16 C         141.9581  138.6986  158.3299 C.3     1  UNL1        0.0718
     17 N         141.1404  138.5691  159.5807 N.am    1  UNL1       -0.3025
     18 C         141.7518  137.9844  160.8194 C.2     1  UNL1        0.2458
     19 O         143.1811  137.5293  160.8073 O.2     1  UNL1       -0.2701
     20 H         140.2023  138.8678  159.5886 H       1  UNL1        0.1497
     21 C         140.9340  137.8549  162.0702 C.ar    1  UNL1        0.0534
     22 C         141.6080  137.5822  163.3821 C.ar    1  UNL1        0.0054
     23 C         140.7903  137.4527  164.6329 C.ar    1  UNL1        0.0115
     24 C         139.2984  137.5959  164.5717 C.ar    1  UNL1        0.0577
     25 CL        138.4806  137.4664  165.8225 Cl      1  UNL1       -0.0822
     26 C         138.6243  137.8686  163.2598 C.ar    1  UNL1        0.0115
     27 C         139.4420  137.9981  162.0090 C.ar    1  UNL1        0.0054
     28 C         143.8569  140.4145  158.7773 C.3     1  UNL1        0.0017
     29 C         142.6380  139.9968  158.0095 C.3     1  UNL1        0.0196
@<TRIPOS>BOND
     1    28    29    1
     2    29    16    1
     3    16    17    1
     4    17    18   am
     5    18    19    2
     6    18    21    1
     7    21    22   ar
     8    22    23   ar
     9    23    24   ar
    10    24    25    1
    11    24    26   ar
    12    26    27   ar
    13     1    16    1
    14     1     2    1
    15     2     3    1
    16     3     4    1
    17     4     7    1
    18     7     8   ar
    19     8     9   ar
    20     9    10   ar
    21    10    11   ar
    22    11    12   ar
    23    12    13   ar
    24    13    14   ar
    25    14    15   ar
    26     4     5    1
    27     6     5    1
    28    27    21   ar
    29     6     1    1
    30     6     2    1
    31    15     7   ar
    32    15    10   ar
    33    17    20    1
@<TRIPOS>MOLECULE
*****
 29 33 0 0 0
SMALL
GASTEIGER

@<TRIPOS>ATOM
      1 C         140.3268  139.2993  160.1417 C.3     1  UNL1        0.0181
      2 C         139.1636  140.1552  159.7360 C.3     1  UNL1        0.0036
      3 C         138.0612  140.9000  159.0432 C.3     1  UNL1        0.0227
      4 C         138.1084  140.5482  157.5859 C.3     1  UNL1        0.0884
      5 C         139.2401  139.5858  157.3778 C.3     1  UNL1        0.0227
      6 C         139.8922  139.3429  158.7066 C.3     1  UNL1        0.0036
      7 N         137.1860  141.0675  156.5231 N.ar    1  UNL1       -0.2964
      8 C         137.5673  141.9748  155.3911 C.ar    1  UNL1        0.1796
      9 N         136.3373  142.2386  154.5741 N.ar    1  UNL1       -0.2223
     10 C         135.1958  141.4944  155.2012 C.ar    1  UNL1        0.1171
     11 C         133.7466  141.3823  154.8310 C.ar    1  UNL1        0.0238
     12 C         132.8219  140.5464  155.6653 C.ar    1  UNL1        0.0223
     13 C         133.3465  139.8226  156.8699 C.ar    1  UNL1        0.1006
     14 N         134.7957  139.9346  157.2401 N.ar    1  UNL1       -0.2252
     15 C         135.7204  140.7706  156.4057 C.ar    1  UNL1        0.1627
     16 C         141.2492  138.7800  161.2044 C.3     1  UNL1        0.0718
     17 N         141.0405  139.1739  162.6366 N.am    1  UNL1       -0.3025
     18 C         139.9215  138.5629  163.4270 C.2     1  UNL1        0.2458
     19 O         139.0113  137.5582  162.7852 O.2     1  UNL1       -0.2701
     20 H         141.6379  139.8333  163.0578 H       1  UNL1        0.1497
     21 C         139.7128  138.9568  164.8593 C.ar    1  UNL1        0.0534
     22 C         140.7793  139.7160  165.5914 C.ar    1  UNL1        0.0054
     23 C         140.5706  140.1098  167.0237 C.ar    1  UNL1        0.0115
     24 C         139.2953  139.7445  167.7237 C.ar    1  UNL1        0.0577
     25 CL        139.0866  140.1384  169.1560 Cl      1  UNL1       -0.0822
     26 C         138.2287  138.9853  166.9916 C.ar    1  UNL1        0.0115
     27 C         138.4374  138.5914  165.5594 C.ar    1  UNL1        0.0054
     28 C         143.6967  137.9780  161.5454 C.3     1  UNL1        0.0017
     29 C         142.3805  137.8668  160.8349 C.3     1  UNL1        0.0196
@<TRIPOS>BOND
     1    28    29    1
     2    29    16    1
     3    16    17    1
     4    17    18   am
     5    18    19    2
     6    18    21    1
     7    21    22   ar
     8    22    23   ar
     9    23    24   ar
    10    24    25    1
    11    24    26   ar
    12    26    27   ar
    13     1    16    1
    14     1     2    1
    15     2     3    1
    16     3     4    1
    17     4     7    1
    18     7     8   ar
    19     8     9   ar
    20     9    10   ar
    21    10    11   ar
    22    11    12   ar
    23    12    13   ar
    24    13    14   ar
    25    14    15   ar
    26     4     5    1
    27     6     5    1
    28    27    21   ar
    29     6     1    1
    30     6     2    1
    31    15     7   ar
    32    15    10   ar
    33    17    20    1
@<TRIPOS>MOLECULE
*****
 29 33 0 0 0
SMALL
GASTEIGER

@<TRIPOS>ATOM
      1 C         137.0211  141.0630  156.2792 C.3     1  UNL1        0.0181
      2 C         137.8500  142.2626  156.6311 C.3     1  UNL1        0.0036
      3 C         138.7196  143.3130  157.2561 C.3     1  UNL1        0.0227
      4 C         139.0874  142.8505  158.6347 C.3     1  UNL1        0.0884
      5 C         138.4451  141.5141  158.8620 C.3     1  UNL1        0.0227
      6 C         137.6804  141.1508  157.6237 C.3     1  UNL1        0.0036
      7 N         139.9465  143.5937  159.6142 N.ar    1  UNL1       -0.2964
      8 C         141.3339  144.1043  159.3601 C.ar    1  UNL1        0.1796
      9 N         141.8139  144.7829  160.6086 N.ar    1  UNL1       -0.2223
     10 C         140.7233  144.6918  161.6344 C.ar    1  UNL1        0.1171
     11 C         140.6320  145.1832  163.0487 C.ar    1  UNL1        0.0238
     12 C         139.3866  144.9395  163.8484 C.ar    1  UNL1        0.0223
     13 C         138.2325  144.2045  163.2338 C.ar    1  UNL1        0.1006
     14 N         138.3238  143.7131  161.8195 N.ar    1  UNL1       -0.2252
     15 C         139.5692  143.9568  161.0198 C.ar    1  UNL1        0.1627
     16 C         136.1620  140.3197  155.2998 C.3     1  UNL1        0.0718
     17 N         134.6999  140.6372  155.1928 N.am    1  UNL1       -0.3025
     18 C         133.7494  140.1599  156.2505 C.2     1  UNL1        0.2458
     19 O         134.2610  139.3651  157.4152 O.2     1  UNL1       -0.2701
     20 H         134.3640  141.1588  154.4284 H       1  UNL1        0.1497
     21 C         132.2872  140.4774  156.1435 C.ar    1  UNL1        0.0534
     22 C         131.2855  139.6657  156.9100 C.ar    1  UNL1        0.0054
     23 C         129.8234  139.9832  156.8031 C.ar    1  UNL1        0.0115
     24 C         129.3630  141.1123  155.9295 C.ar    1  UNL1        0.0577
     25 CL        127.9009  141.4298  155.8225 Cl      1  UNL1       -0.0822
     26 C         130.3648  141.9240  155.1629 C.ar    1  UNL1        0.0115
     27 C         131.8269  141.6066  155.2699 C.ar    1  UNL1        0.0054
     28 C         136.3571  139.1506  152.9878 C.3     1  UNL1        0.0017
     29 C         136.7649  139.2590  154.4272 C.3     1  UNL1        0.0196
@<TRIPOS>BOND
     1    28    29    1
     2    29    16    1
     3    16    17    1
     4    17    18   am
     5    18    19    2
     6    18    21    1
     7    21    22   ar
     8    22    23   ar
     9    23    24   ar
    10    24    25    1
    11    24    26   ar
    12    26    27   ar
    13     1    16    1
    14     1     2    1
    15     2     3    1
    16     3     4    1
    17     4     7    1
    18     7     8   ar
    19     8     9   ar
    20     9    10   ar
    21    10    11   ar
    22    11    12   ar
    23    12    13   ar
    24    13    14   ar
    25    14    15   ar
    26     4     5    1
    27     6     5    1
    28    27    21   ar
    29     6     1    1
    30     6     2    1
    31    15     7   ar
    32    15    10   ar
    33    17    20    1
@<TRIPOS>MOLECULE
*****
 29 33 0 0 0
SMALL
GASTEIGER

@<TRIPOS>ATOM
      1 C         140.0362  138.2261  157.5368 C.3     1  UNL1        0.0181
      2 C         139.1725  139.1365  158.3587 C.3     1  UNL1        0.0036
      3 C         138.4753  139.9334  159.4211 C.3     1  UNL1        0.0227
      4 C         139.0900  139.5814  160.7432 C.3     1  UNL1        0.0884
      5 C         140.1673  138.5668  160.4980 C.3     1  UNL1        0.0227
      6 C         140.2183  138.2919  159.0243 C.3     1  UNL1        0.0036
      7 N         138.6966  140.1449  162.0765 N.ar    1  UNL1       -0.2964
      8 C         138.2789  141.5599  162.3472 C.ar    1  UNL1        0.1796
      9 N         137.9760  141.6817  163.8112 N.ar    1  UNL1       -0.2223
     10 C         138.2064  140.3421  164.4454 C.ar    1  UNL1        0.1171
     11 C         138.0683  139.8644  165.8605 C.ar    1  UNL1        0.0238
     12 C         138.3755  138.4369  166.2036 C.ar    1  UNL1        0.0223
     13 C         138.8209  137.4870  165.1315 C.ar    1  UNL1        0.1006
     14 N         138.9590  137.9647  163.7163 N.ar    1  UNL1       -0.2252
     15 C         138.6518  139.3922  163.3733 C.ar    1  UNL1        0.1627
     16 C         140.4296  137.6627  156.2036 C.3     1  UNL1        0.0718
     17 N         141.0231  136.2879  156.1159 N.am    1  UNL1       -0.3025
     18 C         142.4592  136.0659  156.4878 C.2     1  UNL1        0.2458
     19 O         143.3018  137.2187  156.9473 O.2     1  UNL1       -0.2701
     20 H         140.4701  135.5313  155.8143 H       1  UNL1        0.1497
     21 C         143.0528  134.6911  156.4002 C.ar    1  UNL1        0.0534
     22 C         142.9150  133.8938  155.1372 C.ar    1  UNL1        0.0054
     23 C         143.5085  132.5190  155.0496 C.ar    1  UNL1        0.0115
     24 C         144.2399  131.9415  156.2250 C.ar    1  UNL1        0.0577
     25 CL        144.8334  130.5668  156.1373 Cl      1  UNL1       -0.0822
     26 C         144.3777  132.7388  157.4880 C.ar    1  UNL1        0.0115
     27 C         143.7842  134.1136  157.5757 C.ar    1  UNL1        0.0054
     28 C         139.8398  137.7977  153.6769 C.3     1  UNL1        0.0017
     29 C         140.2294  138.4739  154.9578 C.3     1  UNL1        0.0196
@<TRIPOS>BOND
     1    28    29    1
     2    29    16    1
     3    16    17    1
     4    17    18   am
     5    18    19    2
     6    18    21    1
     7    21    22   ar
     8    22    23   ar
     9    23    24   ar
    10    24    25    1
    11    24    26   ar
    12    26    27   ar
    13     1    16    1
    14     1     2    1
    15     2     3    1
    16     3     4    1
    17     4     7    1
    18     7     8   ar
    19     8     9   ar
    20     9    10   ar
    21    10    11   ar
    22    11    12   ar
    23    12    13   ar
    24    13    14   ar
    25    14    15   ar
    26     4     5    1
    27     6     5    1
    28    27    21   ar
    29     6     1    1
    30     6     2    1
    31    15     7   ar
    32    15    10   ar
    33    17    20    1
@<TRIPOS>MOLECULE
*****
 29 33 0 0 0
SMALL
GASTEIGER

@<TRIPOS>ATOM
      1 C         140.3926  144.8948  157.8443 C.3     1  UNL1        0.0181
      2 C         140.3813  145.1381  159.3244 C.3     1  UNL1        0.0036
      3 C         140.2254  145.1031  160.8159 C.3     1  UNL1        0.0227
      4 C         139.5317  143.8240  161.1798 C.3     1  UNL1        0.0884
      5 C         139.2589  143.0682  159.9131 C.3     1  UNL1        0.0227
      6 C         139.7839  143.8803  158.7665 C.3     1  UNL1        0.0036
      7 N         139.1737  143.3786  162.5667 N.ar    1  UNL1       -0.2964
      8 C         137.7900  143.0971  163.0727 C.ar    1  UNL1        0.1796
      9 N         137.8978  142.6811  164.5098 N.ar    1  UNL1       -0.2223
     10 C         139.3481  142.7057  164.8920 C.ar    1  UNL1        0.1171
     11 C         140.0524  142.3911  166.1784 C.ar    1  UNL1        0.0238
     12 C         141.5454  142.5077  166.2639 C.ar    1  UNL1        0.0223
     13 C         142.3340  142.9388  165.0629 C.ar    1  UNL1        0.1006
     14 N         141.6297  143.2533  163.7765 N.ar    1  UNL1       -0.2252
     15 C         140.1367  143.1367  163.6911 C.ar    1  UNL1        0.1627
     16 C         140.7506  145.3400  156.4574 C.3     1  UNL1        0.0718
     17 N         140.6263  146.7860  156.0784 N.am    1  UNL1       -0.3025
     18 C         139.3578  147.2926  155.4586 C.2     1  UNL1        0.2458
     19 O         138.2135  146.3532  155.2177 O.2     1  UNL1       -0.2701
     20 H         141.3774  147.4026  156.2366 H       1  UNL1        0.1497
     21 C         139.2336  148.7387  155.0796 C.ar    1  UNL1        0.0534
     22 C         138.5278  149.6956  155.9938 C.ar    1  UNL1        0.0054
     23 C         138.4035  151.1416  155.6148 C.ar    1  UNL1        0.0115
     24 C         138.9852  151.6306  154.3215 C.ar    1  UNL1        0.0577
     25 CL        138.8610  153.0766  153.9426 Cl      1  UNL1       -0.0822
     26 C         139.6910  150.6736  153.4072 C.ar    1  UNL1        0.0115
     27 C         139.8153  149.2276  153.7862 C.ar    1  UNL1        0.0054
     28 C         140.2686  143.3671  154.8372 C.3     1  UNL1        0.0017
     29 C         141.2328  144.3393  155.4494 C.3     1  UNL1        0.0196
@<TRIPOS>BOND
     1    28    29    1
     2    29    16    1
     3    16    17    1
     4    17    18   am
     5    18    19    2
     6    18    21    1
     7    21    22   ar
     8    22    23   ar
     9    23    24   ar
    10    24    25    1
    11    24    26   ar
    12    26    27   ar
    13     1    16    1
    14     1     2    1
    15     2     3    1
    16     3     4    1
    17     4     7    1
    18     7     8   ar
    19     8     9   ar
    20     9    10   ar
    21    10    11   ar
    22    11    12   ar
    23    12    13   ar
    24    13    14   ar
    25    14    15   ar
    26     4     5    1
    27     6     5    1
    28    27    21   ar
    29     6     1    1
    30     6     2    1
    31    15     7   ar
    32    15    10   ar
    33    17    20    1
@<TRIPOS>MOLECULE
*****
 29 33 0 0 0
SMALL
GASTEIGER

@<TRIPOS>ATOM
      1 C         139.1289  141.0739  162.1722 C.3     1  UNL1        0.0181
      2 C         139.6332  139.7469  161.6874 C.3     1  UNL1        0.0036
      3 C         140.2216  138.5822  160.9476 C.3     1  UNL1        0.0227
      4 C         140.7290  139.0804  159.6269 C.3     1  UNL1        0.0884
      5 C         140.4543  140.5530  159.5503 C.3     1  UNL1        0.0227
      6 C         139.7771  140.9649  160.8238 C.3     1  UNL1        0.0036
      7 N         141.3944  138.2515  158.5685 N.ar    1  UNL1       -0.2964
      8 C         142.8245  137.7988  158.5725 C.ar    1  UNL1        0.1796
      9 N         143.0604  136.9973  157.3267 N.ar    1  UNL1       -0.2223
     10 C         141.7761  136.9547  156.5528 C.ar    1  UNL1        0.1171
     11 C         141.4113  136.3102  155.2484 C.ar    1  UNL1        0.0238
     12 C         140.0168  136.4408  154.7115 C.ar    1  UNL1        0.0223
     13 C         138.9872  137.2159  155.4789 C.ar    1  UNL1        0.1006
     14 N         139.3520  137.8604  156.7833 N.ar    1  UNL1       -0.2252
     15 C         140.7465  137.7298  157.3202 C.ar    1  UNL1        0.1627
     16 C         138.4636  141.9027  163.2305 C.3     1  UNL1        0.0718
     17 N         138.6748  141.5789  164.6799 N.am    1  UNL1       -0.3025
     18 C         139.9252  142.0303  165.3747 C.2     1  UNL1        0.2458
     19 O         140.9644  142.8054  164.6202 O.2     1  UNL1       -0.2701
     20 H         137.9927  141.0702  165.1751 H       1  UNL1        0.1497
     21 C         140.1364  141.7065  166.8241 C.ar    1  UNL1        0.0534
     22 C         140.5006  142.7944  167.7903 C.ar    1  UNL1        0.0054
     23 C         140.7118  142.4706  169.2396 C.ar    1  UNL1        0.0115
     24 C         140.5588  141.0588  169.7227 C.ar    1  UNL1        0.0577
     25 CL        140.7699  140.7351  171.1720 Cl      1  UNL1       -0.0822
     26 C         140.1945  139.9708  168.7565 C.ar    1  UNL1        0.0115
     27 C         139.9833  140.2946  167.3072 C.ar    1  UNL1        0.0054
     28 C         137.8230  144.4124  163.4337 C.3     1  UNL1        0.0017
     29 C         137.5869  143.0555  162.8397 C.3     1  UNL1        0.0196
@<TRIPOS>BOND
     1    28    29    1
     2    29    16    1
     3    16    17    1
     4    17    18   am
     5    18    19    2
     6    18    21    1
     7    21    22   ar
     8    22    23   ar
     9    23    24   ar
    10    24    25    1
    11    24    26   ar
    12    26    27   ar
    13     1    16    1
    14     1     2    1
    15     2     3    1
    16     3     4    1
    17     4     7    1
    18     7     8   ar
    19     8     9   ar
    20     9    10   ar
    21    10    11   ar
    22    11    12   ar
    23    12    13   ar
    24    13    14   ar
    25    14    15   ar
    26     4     5    1
    27     6     5    1
    28    27    21   ar
    29     6     1    1
    30     6     2    1
    31    15     7   ar
    32    15    10   ar
    33    17    20    1
@<TRIPOS>MOLECULE
*****
 29 33 0 0 0
SMALL
GASTEIGER

@<TRIPOS>ATOM
      1 C         141.0135  139.3223  162.3519 C.3     1  UNL1        0.0181
      2 C         142.1109  139.0785  161.3587 C.3     1  UNL1        0.0036
      3 C         143.1531  139.1318  160.2811 C.3     1  UNL1        0.0227
      4 C         143.1182  140.5010  159.6697 C.3     1  UNL1        0.0884
      5 C         142.0545  141.2941  160.3693 C.3     1  UNL1        0.0227
      6 C         141.4320  140.4150  161.4132 C.3     1  UNL1        0.0036
      7 N         143.9933  140.9911  158.5543 N.ar    1  UNL1       -0.2964
      8 C         144.7564  142.2823  158.5348 C.ar    1  UNL1        0.1796
      9 N         145.4937  142.3652  157.2311 N.ar    1  UNL1       -0.2223
     10 C         145.1862  141.1253  156.4450 C.ar    1  UNL1        0.1171
     11 C         145.6309  140.6599  155.0901 C.ar    1  UNL1        0.0238
     12 C         145.1482  139.3451  154.5531 C.ar    1  UNL1        0.0223
     13 C         144.2209  138.4958  155.3709 C.ar    1  UNL1        0.1006
     14 N         143.7762  138.9613  156.7258 N.ar    1  UNL1       -0.2252
     15 C         144.2589  140.2760  157.2628 C.ar    1  UNL1        0.1627
     16 C         140.1384  138.8323  163.4671 C.3     1  UNL1        0.0718
     17 N         140.3818  139.2987  164.8718 N.am    1  UNL1       -0.3025
     18 C         139.4825  140.3302  165.4860 C.2     1  UNL1        0.2458
     19 O         138.3398  140.8953  164.6955 O.2     1  UNL1       -0.2701
     20 H         141.1318  138.9279  165.3907 H       1  UNL1        0.1497
     21 C         139.7259  140.7967  166.8908 C.ar    1  UNL1        0.0534
     22 C         139.2835  139.9522  168.0487 C.ar    1  UNL1        0.0054
     23 C         139.5269  140.4186  169.4534 C.ar    1  UNL1        0.0115
     24 C         140.2128  141.7296  169.7001 C.ar    1  UNL1        0.0577
     25 CL        140.4562  142.1961  171.1048 Cl      1  UNL1       -0.0822
     26 C         140.6552  142.5742  168.5421 C.ar    1  UNL1        0.0115
     27 C         140.4118  142.1078  167.1374 C.ar    1  UNL1        0.0054
     28 C         138.1237  138.1045  161.9970 C.3     1  UNL1        0.0017
     29 C         139.0198  137.8756  163.1778 C.3     1  UNL1        0.0196
@<TRIPOS>BOND
     1    28    29    1
     2    29    16    1
     3    16    17    1
     4    17    18   am
     5    18    19    2
     6    18    21    1
     7    21    22   ar
     8    22    23   ar
     9    23    24   ar
    10    24    25    1
    11    24    26   ar
    12    26    27   ar
    13     1    16    1
    14     1     2    1
    15     2     3    1
    16     3     4    1
    17     4     7    1
    18     7     8   ar
    19     8     9   ar
    20     9    10   ar
    21    10    11   ar
    22    11    12   ar
    23    12    13   ar
    24    13    14   ar
    25    14    15   ar
    26     4     5    1
    27     6     5    1
    28    27    21   ar
    29     6     1    1
    30     6     2    1
    31    15     7   ar
    32    15    10   ar
    33    17    20    1
