@<TRIPOS>MOLECULE
*****
 32 36 0 0 0
SMALL
GASTEIGER

@<TRIPOS>ATOM
      1 O         143.9959  142.6627  157.7313 O.2     1  UNL1       -0.2523
      2 C         143.5138  141.4355  158.4466 C.2     1  UNL1        0.3072
      3 N         143.5154  140.1095  157.7456 N.am    1  UNL1       -0.2626
      4 C         144.0184  140.1210  156.3325 C.3     1  UNL1        0.0964
      5 C         144.1440  138.9731  155.3751 C.3     1  UNL1        0.0389
      6 C         143.7975  137.5302  155.5944 C.3     1  UNL1        0.0739
      7 N         143.2400  136.8788  156.8252 N.3     1  UNL1       -0.2725
      8 C         142.8912  137.5095  158.1407 C.3     1  UNL1        0.0939
      9 C         143.0137  138.9472  158.5503 C.3     1  UNL1        0.1122
     10 N         143.0302  141.5345  159.8631 N.am    1  UNL1       -0.2640
     11 C         142.5215  140.4000  160.7023 C.3     1  UNL1        0.0950
     12 C         142.1473  140.9497  162.0469 C.3     1  UNL1        0.0246
     13 C         142.4247  142.4238  162.0387 C.3     1  UNL1        0.0365
     14 C         142.7512  143.8795  161.8824 C.3     1  UNL1        0.0046
     15 C         142.5230  144.8260  163.0235 C.3     1  UNL1        0.0192
     16 C         141.9683  144.3168  164.3208 C.3     1  UNL1        0.0958
     17 N         141.6419  142.8611  164.4771 N.3     1  UNL1       -0.1555
     18 C         141.8701  141.9147  163.3360 C.3     1  UNL1        0.0974
     19 C         142.9704  142.7853  160.6890 C.3     1  UNL1        0.0963
     20 C         142.9995  135.4015  156.7275 C.3     1  UNL1        0.0576
     21 C         143.4852  134.1960  157.4765 C.3     1  UNL1        0.0160
     22 C         142.6595  133.3121  156.5894 C.3     1  UNL1        0.0028
     23 C         142.1739  134.5176  155.8403 C.3     1  UNL1        0.0160
     24 S         141.0872  142.3519  165.7744 S.O2    1  UNL1        0.0633
     25 O         140.1281  143.5045  165.8167 O.2     1  UNL1       -0.1528
     26 O         142.0463  141.1994  165.7322 O.2     1  UNL1       -0.1528
     27 C         140.5326  141.8428  167.0718 C.ar    1  UNL1        0.1222
     28 C         139.8962  140.4859  167.1343 C.ar    1  UNL1        0.0199
     29 C         139.3415  139.9767  168.4317 C.ar    1  UNL1        0.0014
     30 C         139.4233  140.8244  169.6665 C.ar    1  UNL1        0.0001
     31 C         140.0596  142.1812  169.6039 C.ar    1  UNL1        0.0014
     32 C         140.6143  142.6904  168.3066 C.ar    1  UNL1        0.0199
@<TRIPOS>BOND
     1     1     2    2
     2     2     3   am
     3     3     4    1
     4     4     5    1
     5     5     6    1
     6     6     7    1
     7     7    20    1
     8    20    21    1
     9    21    22    1
    10    22    23    1
    11     7     8    1
    12     8     9    1
    13     2    10   am
    14    10    11    1
    15    11    12    1
    16    12    13    1
    17    13    14    1
    18    14    15    1
    19    15    16    1
    20    16    17    1
    21    17    24    1
    22    24    25    2
    23    24    26    2
    24    24    27    1
    25    27    28   ar
    26    28    29   ar
    27    29    30   ar
    28    30    31   ar
    29    31    32   ar
    30    17    18    1
    31    13    19    1
    32     9     3    1
    33    19    10    1
    34    23    20    1
    35    18    13    1
    36    32    27   ar
@<TRIPOS>MOLECULE
*****
 32 36 0 0 0
SMALL
GASTEIGER

@<TRIPOS>ATOM
      1 O         143.7057  143.6261  161.2888 O.2     1  UNL1       -0.2523
      2 C         142.9573  142.3406  161.4825 C.2     1  UNL1        0.3072
      3 N         142.1650  142.1157  162.7360 N.am    1  UNL1       -0.2626
      4 C         142.1876  143.2383  163.7305 C.3     1  UNL1        0.0964
      5 C         141.5056  143.3204  165.0640 C.3     1  UNL1        0.0389
      6 C         140.6325  142.3000  165.7323 C.3     1  UNL1        0.0739
      7 N         140.2258  140.9455  165.2322 N.3     1  UNL1       -0.2725
      8 C         140.5918  140.2770  163.9402 C.3     1  UNL1        0.0939
      9 C         141.4548  140.7977  162.8294 C.3     1  UNL1        0.1122
     10 N         143.0013  141.2802  160.4226 N.am    1  UNL1       -0.2640
     11 C         142.3075  139.9513  160.4755 C.3     1  UNL1        0.0950
     12 C         142.6242  139.2122  159.2093 C.3     1  UNL1        0.0246
     13 C         143.5138  140.0843  158.3736 C.3     1  UNL1        0.0365
     14 C         144.3939  141.0624  157.6534 C.3     1  UNL1        0.0046
     15 C         144.9523  140.7170  156.3048 C.3     1  UNL1        0.0192
     16 C         144.6307  139.3935  155.6764 C.3     1  UNL1        0.0958
     17 N         143.7507  138.4154  156.3966 N.3     1  UNL1       -0.1555
     18 C         143.1922  138.7608  157.7452 C.3     1  UNL1        0.0974
     19 C         143.7469  141.3623  159.1235 C.3     1  UNL1        0.0963
     20 C         139.3355  140.1552  166.1447 C.3     1  UNL1        0.0576
     21 C         138.0822  139.3502  165.9680 C.3     1  UNL1        0.0160
     22 C         138.0763  139.0376  167.4351 C.3     1  UNL1        0.0028
     23 C         139.3296  139.8426  167.6117 C.3     1  UNL1        0.0160
     24 S         143.4290  137.0919  155.7682 S.O2    1  UNL1        0.0633
     25 O         141.9878  137.2620  156.1475 O.2     1  UNL1       -0.1528
     26 O         144.8703  136.9217  155.3889 O.2     1  UNL1       -0.1528
     27 C         143.1074  135.7684  155.1397 C.ar    1  UNL1        0.1222
     28 C         143.5636  134.4974  155.7928 C.ar    1  UNL1        0.0199
     29 C         143.2419  133.1739  155.1644 C.ar    1  UNL1        0.0014
     30 C         142.4642  133.1214  153.8829 C.ar    1  UNL1        0.0001
     31 C         142.0080  134.3923  153.2298 C.ar    1  UNL1        0.0014
     32 C         142.3296  135.7158  153.8582 C.ar    1  UNL1        0.0199
@<TRIPOS>BOND
     1     1     2    2
     2     2     3   am
     3     3     4    1
     4     4     5    1
     5     5     6    1
     6     6     7    1
     7     7    20    1
     8    20    21    1
     9    21    22    1
    10    22    23    1
    11     7     8    1
    12     8     9    1
    13     2    10   am
    14    10    11    1
    15    11    12    1
    16    12    13    1
    17    13    14    1
    18    14    15    1
    19    15    16    1
    20    16    17    1
    21    17    24    1
    22    24    25    2
    23    24    26    2
    24    24    27    1
    25    27    28   ar
    26    28    29   ar
    27    29    30   ar
    28    30    31   ar
    29    31    32   ar
    30    17    18    1
    31    13    19    1
    32     9     3    1
    33    19    10    1
    34    23    20    1
    35    18    13    1
    36    32    27   ar
@<TRIPOS>MOLECULE
*****
 32 36 0 0 0
SMALL
GASTEIGER

@<TRIPOS>ATOM
      1 O         139.7932  138.0939  158.9239 O.2     1  UNL1       -0.2523
      2 C         140.9226  138.9684  159.3816 C.2     1  UNL1        0.3072
      3 N         141.9855  139.3901  158.4108 N.am    1  UNL1       -0.2626
      4 C         141.8245  138.8826  157.0085 C.3     1  UNL1        0.0964
      5 C         142.7071  139.1232  155.8197 C.3     1  UNL1        0.0389
      6 C         143.9687  139.9307  155.7397 C.3     1  UNL1        0.0739
      7 N         144.6592  140.6971  156.8287 N.3     1  UNL1       -0.2725
      8 C         144.2587  140.8452  158.2667 C.3     1  UNL1        0.0939
      9 C         143.0689  140.2636  158.9707 C.3     1  UNL1        0.1122
     10 N         140.9892  139.4213  160.8100 N.am    1  UNL1       -0.2640
     11 C         142.0524  140.2929  161.4100 C.3     1  UNL1        0.0950
     12 C         141.7245  140.4924  162.8601 C.3     1  UNL1        0.0246
     13 C         140.4587  139.7439  163.1564 C.3     1  UNL1        0.0365
     14 C         139.1929  138.9523  163.3017 C.3     1  UNL1        0.0046
     15 C         138.5028  138.8788  164.6314 C.3     1  UNL1        0.0192
     16 C         139.0785  139.5969  165.8159 C.3     1  UNL1        0.0958
     17 N         140.3442  140.3885  165.6706 N.3     1  UNL1       -0.1555
     18 C         141.0344  140.4620  164.3408 C.3     1  UNL1        0.0974
     19 C         140.0043  139.0820  161.8894 C.3     1  UNL1        0.0963
     20 C         145.9165  141.4095  156.4265 C.3     1  UNL1        0.0576
     21 C         146.7428  142.5155  157.0130 C.3     1  UNL1        0.0160
     22 C         147.6945  142.4171  155.8577 C.3     1  UNL1        0.0028
     23 C         146.8681  141.3112  155.2711 C.3     1  UNL1        0.0160
     24 S         140.9199  141.1066  166.8551 S.O2    1  UNL1        0.0633
     25 O         140.5587  139.9461  167.7342 O.2     1  UNL1       -0.1528
     26 O         141.2811  142.2671  165.9760 O.2     1  UNL1       -0.1528
     27 C         141.4955  141.8247  168.0395 C.ar    1  UNL1        0.1222
     28 C         142.9154  141.5725  168.4522 C.ar    1  UNL1        0.0199
     29 C         143.4911  142.2906  169.6366 C.ar    1  UNL1        0.0014
     30 C         142.6468  143.2609  170.4085 C.ar    1  UNL1        0.0001
     31 C         141.2269  143.5131  169.9959 C.ar    1  UNL1        0.0014
     32 C         140.6513  142.7950  168.8114 C.ar    1  UNL1        0.0199
@<TRIPOS>BOND
     1     1     2    2
     2     2     3   am
     3     3     4    1
     4     4     5    1
     5     5     6    1
     6     6     7    1
     7     7    20    1
     8    20    21    1
     9    21    22    1
    10    22    23    1
    11     7     8    1
    12     8     9    1
    13     2    10   am
    14    10    11    1
    15    11    12    1
    16    12    13    1
    17    13    14    1
    18    14    15    1
    19    15    16    1
    20    16    17    1
    21    17    24    1
    22    24    25    2
    23    24    26    2
    24    24    27    1
    25    27    28   ar
    26    28    29   ar
    27    29    30   ar
    28    30    31   ar
    29    31    32   ar
    30    17    18    1
    31    13    19    1
    32     9     3    1
    33    19    10    1
    34    23    20    1
    35    18    13    1
    36    32    27   ar
@<TRIPOS>MOLECULE
*****
 32 36 0 0 0
SMALL
GASTEIGER

@<TRIPOS>ATOM
      1 O         139.3801  142.3321  155.7672 O.2     1  UNL1       -0.2523
      2 C         140.2445  141.7982  156.8707 C.2     1  UNL1        0.3072
      3 N         140.6380  142.6879  158.0123 N.am    1  UNL1       -0.2626
      4 C         140.1142  144.0922  157.9536 C.3     1  UNL1        0.0964
      5 C         140.3263  145.2112  158.9298 C.3     1  UNL1        0.0389
      6 C         141.1146  145.2021  160.2059 C.3     1  UNL1        0.0739
      7 N         141.8855  144.0719  160.8210 N.3     1  UNL1       -0.2725
      8 C         142.0585  142.6715  160.3118 C.3     1  UNL1        0.0939
      9 C         141.5033  142.0556  159.0619 C.3     1  UNL1        0.1122
     10 N         140.7153  140.3746  156.8325 N.am    1  UNL1       -0.2640
     11 C         141.5797  139.7039  157.8588 C.3     1  UNL1        0.0950
     12 C         141.8030  138.2865  157.4219 C.3     1  UNL1        0.0246
     13 C         141.0768  138.0810  156.1255 C.3     1  UNL1        0.0365
     14 C         140.3053  138.0255  154.8404 C.3     1  UNL1        0.0046
     15 C         140.2593  136.7530  154.0476 C.3     1  UNL1        0.0192
     16 C         140.9849  135.5360  154.5399 C.3     1  UNL1        0.0958
     17 N         141.7564  135.5915  155.8251 N.3     1  UNL1       -0.1555
     18 C         141.8023  136.8640  156.6179 C.3     1  UNL1        0.0974
     19 C         140.4045  139.3715  155.7613 C.3     1  UNL1        0.0963
     20 C         142.5745  144.3832  162.1165 C.3     1  UNL1        0.0576
     21 C         143.9391  144.1214  162.6817 C.3     1  UNL1        0.0160
     22 C         143.5491  144.8234  163.9486 C.3     1  UNL1        0.0028
     23 C         142.1845  145.0852  163.3834 C.3     1  UNL1        0.0160
     24 S         142.4819  134.3744  156.3174 S.O2    1  UNL1        0.0633
     25 O         143.4764  135.2512  157.0191 O.2     1  UNL1       -0.1528
     26 O         141.4874  133.4977  155.6157 O.2     1  UNL1       -0.1528
     27 C         143.2075  133.1574  156.8098 C.ar    1  UNL1        0.1222
     28 C         142.6497  131.7914  156.5399 C.ar    1  UNL1        0.0199
     29 C         143.3753  130.5743  157.0323 C.ar    1  UNL1        0.0014
     30 C         144.6585  130.7233  157.7945 C.ar    1  UNL1        0.0001
     31 C         145.2163  132.0893  158.0643 C.ar    1  UNL1        0.0014
     32 C         144.4907  133.3064  157.5720 C.ar    1  UNL1        0.0199
@<TRIPOS>BOND
     1     1     2    2
     2     2     3   am
     3     3     4    1
     4     4     5    1
     5     5     6    1
     6     6     7    1
     7     7    20    1
     8    20    21    1
     9    21    22    1
    10    22    23    1
    11     7     8    1
    12     8     9    1
    13     2    10   am
    14    10    11    1
    15    11    12    1
    16    12    13    1
    17    13    14    1
    18    14    15    1
    19    15    16    1
    20    16    17    1
    21    17    24    1
    22    24    25    2
    23    24    26    2
    24    24    27    1
    25    27    28   ar
    26    28    29   ar
    27    29    30   ar
    28    30    31   ar
    29    31    32   ar
    30    17    18    1
    31    13    19    1
    32     9     3    1
    33    19    10    1
    34    23    20    1
    35    18    13    1
    36    32    27   ar
@<TRIPOS>MOLECULE
*****
 32 36 0 0 0
SMALL
GASTEIGER

@<TRIPOS>ATOM
      1 O         138.2236  142.7627  159.1490 O.2     1  UNL1       -0.2523
      2 C         138.8146  141.6571  159.9725 C.2     1  UNL1        0.3072
      3 N         138.7566  141.7239  161.4698 N.am    1  UNL1       -0.2626
      4 C         138.0864  142.9378  162.0417 C.3     1  UNL1        0.0964
      5 C         137.8705  143.2957  163.4823 C.3     1  UNL1        0.0389
      6 C         138.2716  142.5278  164.7069 C.3     1  UNL1        0.0739
      7 N         138.9876  141.2125  164.7933 N.3     1  UNL1       -0.2725
      8 C         139.4793  140.3402  163.6764 C.3     1  UNL1        0.0939
      9 C         139.3766  140.5678  162.1974 C.3     1  UNL1        0.1122
     10 N         139.4637  140.4847  159.2987 N.am    1  UNL1       -0.2640
     11 C         140.0942  139.3103  159.9866 C.3     1  UNL1        0.0950
     12 C         140.6164  138.3806  158.9317 C.3     1  UNL1        0.0246
     13 C         140.3087  138.9803  157.5916 C.3     1  UNL1        0.0365
     14 C         139.9347  139.6994  156.3294 C.3     1  UNL1        0.0046
     15 C         140.2790  139.1034  154.9967 C.3     1  UNL1        0.0192
     16 C         140.9971  137.7884  154.9261 C.3     1  UNL1        0.0958
     17 N         141.3710  137.0693  156.1883 N.3     1  UNL1       -0.1555
     18 C         141.0268  137.6653  157.5210 C.3     1  UNL1        0.0974
     19 C         139.5962  140.2807  157.8184 C.3     1  UNL1        0.0963
     20 C         139.2459  140.7021  166.1799 C.3     1  UNL1        0.0576
     21 C         138.8467  139.4793  166.9515 C.3     1  UNL1        0.0160
     22 C         139.6112  139.9801  168.1409 C.3     1  UNL1        0.0028
     23 C         140.0105  141.2030  167.3693 C.3     1  UNL1        0.0160
     24 S         142.0892  135.7543  156.1177 S.O2    1  UNL1        0.0633
     25 O         142.9941  136.1886  157.2324 O.2     1  UNL1       -0.1528
     26 O         141.1843  135.3200  155.0030 O.2     1  UNL1       -0.1528
     27 C         142.8073  134.4393  156.0471 C.ar    1  UNL1        0.1222
     28 C         143.7164  134.0203  157.1642 C.ar    1  UNL1        0.0199
     29 C         144.4346  132.7053  157.0936 C.ar    1  UNL1        0.0014
     30 C         144.2436  131.8092  155.9059 C.ar    1  UNL1        0.0001
     31 C         143.3345  132.2282  154.7888 C.ar    1  UNL1        0.0014
     32 C         142.6164  133.5433  154.8594 C.ar    1  UNL1        0.0199
@<TRIPOS>BOND
     1     1     2    2
     2     2     3   am
     3     3     4    1
     4     4     5    1
     5     5     6    1
     6     6     7    1
     7     7    20    1
     8    20    21    1
     9    21    22    1
    10    22    23    1
    11     7     8    1
    12     8     9    1
    13     2    10   am
    14    10    11    1
    15    11    12    1
    16    12    13    1
    17    13    14    1
    18    14    15    1
    19    15    16    1
    20    16    17    1
    21    17    24    1
    22    24    25    2
    23    24    26    2
    24    24    27    1
    25    27    28   ar
    26    28    29   ar
    27    29    30   ar
    28    30    31   ar
    29    31    32   ar
    30    17    18    1
    31    13    19    1
    32     9     3    1
    33    19    10    1
    34    23    20    1
    35    18    13    1
    36    32    27   ar
@<TRIPOS>MOLECULE
*****
 32 36 0 0 0
SMALL
GASTEIGER

@<TRIPOS>ATOM
      1 O         142.5941  144.7945  158.0882 O.2     1  UNL1       -0.2523
      2 C         141.4015  144.0438  158.6021 C.2     1  UNL1        0.3072
      3 N         140.3175  143.6199  157.6560 N.am    1  UNL1       -0.2626
      4 C         140.5239  143.9964  156.2189 C.3     1  UNL1        0.0964
      5 C         139.6342  143.7216  155.0429 C.3     1  UNL1        0.0389
      6 C         138.3182  143.0022  155.0138 C.3     1  UNL1        0.0739
      7 N         137.5670  142.3801  156.1534 N.3     1  UNL1       -0.2725
      8 C         137.9462  142.3237  157.6036 C.3     1  UNL1        0.0939
      9 C         139.1702  142.8754  158.2723 C.3     1  UNL1        0.1122
     10 N         141.2930  143.7170  160.0620 N.am    1  UNL1       -0.2640
     11 C         140.1658  142.9762  160.7183 C.3     1  UNL1        0.0950
     12 C         140.4688  142.8749  162.1839 C.3     1  UNL1        0.0246
     13 C         141.7833  143.5532  162.4335 C.3     1  UNL1        0.0365
     14 C         143.1018  144.2618  162.5290 C.3     1  UNL1        0.0046
     15 C         143.7866  144.3960  163.8568 C.3     1  UNL1        0.0192
     16 C         143.1528  143.8216  165.0890 C.3     1  UNL1        0.0958
     17 N         141.8343  143.1130  164.9934 N.3     1  UNL1       -0.1555
     18 C         141.1495  142.9788  163.6657 C.3     1  UNL1        0.0974
     19 C         142.2927  144.0736  161.1221 C.3     1  UNL1        0.0963
     20 C         136.2643  141.7283  155.7954 C.3     1  UNL1        0.0576
     21 C         135.2874  141.8608  154.6648 C.3     1  UNL1        0.0160
     22 C         134.4221  140.8065  155.2889 C.3     1  UNL1        0.0028
     23 C         135.3990  140.6739  156.4195 C.3     1  UNL1        0.0160
     24 S         141.2005  142.5386  166.2257 S.O2    1  UNL1        0.0633
     25 O         142.5595  142.3095  166.8179 O.2     1  UNL1       -0.1528
     26 O         139.8415  142.7676  165.6335 O.2     1  UNL1       -0.1528
     27 C         140.5667  141.9642  167.4579 C.ar    1  UNL1        0.1222
     28 C         139.9387  140.6027  167.4132 C.ar    1  UNL1        0.0199
     29 C         139.3049  140.0283  168.6454 C.ar    1  UNL1        0.0014
     30 C         139.2992  140.8153  169.9223 C.ar    1  UNL1        0.0001
     31 C         139.9272  142.1767  169.9670 C.ar    1  UNL1        0.0014
     32 C         140.5610  142.7512  168.7348 C.ar    1  UNL1        0.0199
@<TRIPOS>BOND
     1     1     2    2
     2     2     3   am
     3     3     4    1
     4     4     5    1
     5     5     6    1
     6     6     7    1
     7     7    20    1
     8    20    21    1
     9    21    22    1
    10    22    23    1
    11     7     8    1
    12     8     9    1
    13     2    10   am
    14    10    11    1
    15    11    12    1
    16    12    13    1
    17    13    14    1
    18    14    15    1
    19    15    16    1
    20    16    17    1
    21    17    24    1
    22    24    25    2
    23    24    26    2
    24    24    27    1
    25    27    28   ar
    26    28    29   ar
    27    29    30   ar
    28    30    31   ar
    29    31    32   ar
    30    17    18    1
    31    13    19    1
    32     9     3    1
    33    19    10    1
    34    23    20    1
    35    18    13    1
    36    32    27   ar
@<TRIPOS>MOLECULE
*****
 32 36 0 0 0
SMALL
GASTEIGER

@<TRIPOS>ATOM
      1 O         142.7488  142.8612  159.8767 O.2     1  UNL1       -0.2523
      2 C         142.2257  141.5734  160.4406 C.2     1  UNL1        0.3072
      3 N         141.5630  141.5583  161.7861 N.am    1  UNL1       -0.2626
      4 C         141.4750  142.8834  162.4832 C.3     1  UNL1        0.0964
      5 C         140.8782  143.1977  163.8231 C.3     1  UNL1        0.0389
      6 C         140.2219  142.2641  164.7967 C.3     1  UNL1        0.0739
      7 N         140.0005  140.7858  164.6709 N.3     1  UNL1       -0.2725
      8 C         140.3805  139.8760  163.5405 C.3     1  UNL1        0.0939
      9 C         141.0759  140.2198  162.2567 C.3     1  UNL1        0.1122
     10 N         142.3653  140.3009  159.6589 N.am    1  UNL1       -0.2640
     11 C         141.8934  138.9442  160.0913 C.3     1  UNL1        0.0950
     12 C         142.2377  137.9664  159.0072 C.3     1  UNL1        0.0246
     13 C         142.9224  138.7187  157.9047 C.3     1  UNL1        0.0365
     14 C         143.5887  139.5998  156.8901 C.3     1  UNL1        0.0046
     15 C         144.1040  139.0124  155.6097 C.3     1  UNL1        0.0192
     16 C         143.9531  137.5439  155.3440 C.3     1  UNL1        0.0958
     17 N         143.2867  136.6627  156.3587 N.3     1  UNL1       -0.1555
     18 C         142.7714  137.2501  157.6390 C.3     1  UNL1        0.0974
     19 C         143.0012  140.1614  158.3075 C.3     1  UNL1        0.0963
     20 C         139.3073  140.1309  165.8287 C.3     1  UNL1        0.0576
     21 C         139.5397  140.0735  167.3095 C.3     1  UNL1        0.0160
     22 C         138.3270  139.2047  167.4662 C.3     1  UNL1        0.0028
     23 C         138.0946  139.2620  165.9854 C.3     1  UNL1        0.0160
     24 S         143.1358  135.1942  156.0930 S.O2    1  UNL1        0.0633
     25 O         142.9577  135.4771  154.6307 O.2     1  UNL1       -0.1528
     26 O         143.3139  134.9113  157.5552 O.2     1  UNL1       -0.1528
     27 C         142.9848  133.7257  155.8272 C.ar    1  UNL1        0.1222
     28 C         141.6528  133.1706  155.4178 C.ar    1  UNL1        0.0199
     29 C         141.5018  131.7021  155.1521 C.ar    1  UNL1        0.0014
     30 C         142.6828  130.7886  155.2958 C.ar    1  UNL1        0.0001
     31 C         144.0148  131.3436  155.7053 C.ar    1  UNL1        0.0014
     32 C         144.1658  132.8122  155.9710 C.ar    1  UNL1        0.0199
@<TRIPOS>BOND
     1     1     2    2
     2     2     3   am
     3     3     4    1
     4     4     5    1
     5     5     6    1
     6     6     7    1
     7     7    20    1
     8    20    21    1
     9    21    22    1
    10    22    23    1
    11     7     8    1
    12     8     9    1
    13     2    10   am
    14    10    11    1
    15    11    12    1
    16    12    13    1
    17    13    14    1
    18    14    15    1
    19    15    16    1
    20    16    17    1
    21    17    24    1
    22    24    25    2
    23    24    26    2
    24    24    27    1
    25    27    28   ar
    26    28    29   ar
    27    29    30   ar
    28    30    31   ar
    29    31    32   ar
    30    17    18    1
    31    13    19    1
    32     9     3    1
    33    19    10    1
    34    23    20    1
    35    18    13    1
    36    32    27   ar
@<TRIPOS>MOLECULE
*****
 32 36 0 0 0
SMALL
GASTEIGER

@<TRIPOS>ATOM
      1 O         144.4621  140.8195  157.7533 O.2     1  UNL1       -0.2523
      2 C         143.5810  141.8663  158.3679 C.2     1  UNL1        0.3072
      3 N         142.8975  142.8775  157.4960 N.am    1  UNL1       -0.2626
      4 C         143.1619  142.7532  156.0248 C.3     1  UNL1        0.0964
      5 C         142.6341  143.6000  154.9048 C.3     1  UNL1        0.0389
      6 C         141.7113  144.7802  154.9795 C.3     1  UNL1        0.0739
      7 N         141.0885  145.4052  156.1926 N.3     1  UNL1       -0.2725
      8 C         141.2347  145.0042  157.6306 C.3     1  UNL1        0.0939
      9 C         142.0397  143.8794  158.2107 C.3     1  UNL1        0.1122
     10 N         143.3834  141.9020  159.8544 N.am    1  UNL1       -0.2640
     11 C         142.5364  142.8842  160.6080 C.3     1  UNL1        0.0950
     12 C         142.6277  142.5509  162.0676 C.3     1  UNL1        0.0246
     13 C         143.5311  141.3626  162.2162 C.3     1  UNL1        0.0365
     14 C         144.4502  140.1773  162.2086 C.3     1  UNL1        0.0046
     15 C         144.8213  139.5077  163.4985 C.3     1  UNL1        0.0192
     16 C         144.2734  140.0235  164.7960 C.3     1  UNL1        0.0958
     17 N         143.3543  141.2089  164.8037 N.3     1  UNL1       -0.1555
     18 C         142.9832  141.8785  163.5138 C.3     1  UNL1        0.0974
     19 C         143.9982  140.9616  160.8484 C.3     1  UNL1        0.0963
     20 C         140.2025  146.5874  155.9333 C.3     1  UNL1        0.0576
     21 C         139.2258  147.3803  156.7503 C.3     1  UNL1        0.0160
     22 C         138.9493  148.2593  155.5667 C.3     1  UNL1        0.0028
     23 C         139.9259  147.4664  154.7497 C.3     1  UNL1        0.0160
     24 S         142.8064  141.7247  166.1013 S.O2    1  UNL1        0.0633
     25 O         141.8645  140.5591  166.1669 O.2     1  UNL1       -0.1528
     26 O         143.7482  142.8903  166.0356 O.2     1  UNL1       -0.1528
     27 C         142.2585  142.2406  167.3988 C.ar    1  UNL1        0.1222
     28 C         140.8284  142.6848  167.4854 C.ar    1  UNL1        0.0199
     29 C         140.2805  143.2006  168.7830 C.ar    1  UNL1        0.0014
     30 C         141.1626  143.2722  169.9940 C.ar    1  UNL1        0.0001
     31 C         142.5927  142.8280  169.9074 C.ar    1  UNL1        0.0014
     32 C         143.1406  142.3122  168.6099 C.ar    1  UNL1        0.0199
@<TRIPOS>BOND
     1     1     2    2
     2     2     3   am
     3     3     4    1
     4     4     5    1
     5     5     6    1
     6     6     7    1
     7     7    20    1
     8    20    21    1
     9    21    22    1
    10    22    23    1
    11     7     8    1
    12     8     9    1
    13     2    10   am
    14    10    11    1
    15    11    12    1
    16    12    13    1
    17    13    14    1
    18    14    15    1
    19    15    16    1
    20    16    17    1
    21    17    24    1
    22    24    25    2
    23    24    26    2
    24    24    27    1
    25    27    28   ar
    26    28    29   ar
    27    29    30   ar
    28    30    31   ar
    29    31    32   ar
    30    17    18    1
    31    13    19    1
    32     9     3    1
    33    19    10    1
    34    23    20    1
    35    18    13    1
    36    32    27   ar
@<TRIPOS>MOLECULE
*****
 32 36 0 0 0
SMALL
GASTEIGER

@<TRIPOS>ATOM
      1 O         143.5464  143.2354  159.9106 O.2     1  UNL1       -0.2523
      2 C         143.3108  141.9403  160.6298 C.2     1  UNL1        0.3072
      3 N         143.2306  141.9179  162.1274 N.am    1  UNL1       -0.2626
      4 C         143.3993  143.2438  162.8081 C.3     1  UNL1        0.0964
      5 C         143.3714  143.5519  164.2759 C.3     1  UNL1        0.0389
      6 C         143.1679  142.6099  165.4255 C.3     1  UNL1        0.0739
      7 N         142.9421  141.1274  165.3912 N.3     1  UNL1       -0.2725
      8 C         142.8640  140.2206  164.1988 C.3     1  UNL1        0.0939
      9 C         142.9924  140.5724  162.7464 C.3     1  UNL1        0.1122
     10 N         143.1553  140.6676  159.8513 N.am    1  UNL1       -0.2640
     11 C         142.9164  139.3041  160.4291 C.3     1  UNL1        0.0950
     12 C         142.8249  138.3288  159.2932 C.3     1  UNL1        0.0246
     13 C         143.0072  139.0895  158.0132 C.3     1  UNL1        0.0365
     14 C         143.2048  139.9790  156.8217 C.3     1  UNL1        0.0046
     15 C         143.1862  139.3965  155.4396 C.3     1  UNL1        0.0192
     16 C         142.9700  137.9245  155.2489 C.3     1  UNL1        0.0958
     17 N         142.7724  137.0350  156.4404 N.3     1  UNL1       -0.1555
     18 C         142.7910  137.6175  157.8225 C.3     1  UNL1        0.0974
     19 C         143.2114  140.5350  158.3581 C.3     1  UNL1        0.0963
     20 C         142.7719  140.4640  166.7257 C.3     1  UNL1        0.0576
     21 C         142.9151  139.0619  167.2391 C.3     1  UNL1        0.0160
     22 C         142.5312  139.5258  168.6130 C.3     1  UNL1        0.0028
     23 C         142.3881  140.9279  168.0996 C.3     1  UNL1        0.0160
     24 S         142.5562  135.5629  156.2498 S.O2    1  UNL1        0.0633
     25 O         143.2416  135.2930  157.5564 O.2     1  UNL1       -0.1528
     26 O         141.8709  135.8328  154.9431 O.2     1  UNL1       -0.1528
     27 C         142.3400  134.0909  156.0591 C.ar    1  UNL1        0.1222
     28 C         143.1158  133.1060  156.8827 C.ar    1  UNL1        0.0199
     29 C         142.8996  131.6340  156.6920 C.ar    1  UNL1        0.0014
     30 C         141.9077  131.1468  155.6778 C.ar    1  UNL1        0.0001
     31 C         141.1320  132.1316  154.8542 C.ar    1  UNL1        0.0014
     32 C         141.3482  133.6037  155.0449 C.ar    1  UNL1        0.0199
@<TRIPOS>BOND
     1     1     2    2
     2     2     3   am
     3     3     4    1
     4     4     5    1
     5     5     6    1
     6     6     7    1
     7     7    20    1
     8    20    21    1
     9    21    22    1
    10    22    23    1
    11     7     8    1
    12     8     9    1
    13     2    10   am
    14    10    11    1
    15    11    12    1
    16    12    13    1
    17    13    14    1
    18    14    15    1
    19    15    16    1
    20    16    17    1
    21    17    24    1
    22    24    25    2
    23    24    26    2
    24    24    27    1
    25    27    28   ar
    26    28    29   ar
    27    29    30   ar
    28    30    31   ar
    29    31    32   ar
    30    17    18    1
    31    13    19    1
    32     9     3    1
    33    19    10    1
    34    23    20    1
    35    18    13    1
    36    32    27   ar
