@<TRIPOS>MOLECULE
*****
 29 33 0 0 0
SMALL
GASTEIGER

@<TRIPOS>ATOM
      1 C         137.2751  142.7091  156.0849 C.3     1  UNL1        0.0181
      2 C         137.7566  142.5326  157.4946 C.3     1  UNL1        0.0036
      3 C         138.4578  142.5636  158.8203 C.3     1  UNL1        0.0227
      4 C         139.6088  143.5194  158.7137 C.3     1  UNL1        0.0884
      5 C         139.6192  144.0791  157.3221 C.3     1  UNL1        0.0227
      6 C         138.4745  143.4692  156.5687 C.3     1  UNL1        0.0036
      7 N         140.5793  143.8563  159.8068 N.ar    1  UNL1       -0.2964
      8 C         142.0725  143.9086  159.6748 C.ar    1  UNL1        0.1796
      9 N         142.6429  144.2847  161.0102 N.ar    1  UNL1       -0.2223
     10 C         141.5021  144.4649  161.9674 C.ar    1  UNL1        0.1171
     11 C         141.4600  144.8359  163.4202 C.ar    1  UNL1        0.0238
     12 C         140.1424  144.9420  164.1292 C.ar    1  UNL1        0.0223
     13 C         138.8670  144.6773  163.3854 C.ar    1  UNL1        0.1006
     14 N         138.9092  144.3063  161.9326 N.ar    1  UNL1       -0.2252
     15 C         140.2267  144.2001  161.2236 C.ar    1  UNL1        0.1627
     16 C         136.3048  142.3722  154.9919 C.3     1  UNL1        0.0718
     17 N         134.9009  141.9692  155.3333 N.am    1  UNL1       -0.3025
     18 C         134.5944  140.5438  155.6855 C.2     1  UNL1        0.2458
     19 O         135.6918  139.5213  155.6964 O.2     1  UNL1       -0.2701
     20 H         134.1806  142.6403  155.3261 H       1  UNL1        0.1497
     21 C         133.1903  140.1408  156.0269 C.ar    1  UNL1        0.0534
     22 C         132.9239  138.7996  156.6433 C.ar    1  UNL1        0.0054
     23 C         131.5199  138.3966  156.9846 C.ar    1  UNL1        0.0115
     24 C         130.3824  139.3349  156.7096 C.ar    1  UNL1        0.0577
     25 CL        128.9785  138.9319  157.0509 Cl      1  UNL1       -0.0822
     26 C         130.6489  140.6762  156.0932 C.ar    1  UNL1        0.0115
     27 C         132.0528  141.0792  155.7518 C.ar    1  UNL1        0.0054
     28 C         136.4058  143.6431  152.7281 C.3     1  UNL1        0.0017
     29 C         136.7383  142.4383  153.5574 C.3     1  UNL1        0.0196
@<TRIPOS>BOND
     1    28    29    1
     2    29    16    1
     3    16    17    1
     4    17    18   am
     5    18    19    2
     6    18    21    1
     7    21    22   ar
     8    22    23   ar
     9    23    24   ar
    10    24    25    1
    11    24    26   ar
    12    26    27   ar
    13     1    16    1
    14     1     2    1
    15     2     3    1
    16     3     4    1
    17     4     7    1
    18     7     8   ar
    19     8     9   ar
    20     9    10   ar
    21    10    11   ar
    22    11    12   ar
    23    12    13   ar
    24    13    14   ar
    25    14    15   ar
    26     4     5    1
    27     6     5    1
    28    27    21   ar
    29     6     1    1
    30     6     2    1
    31    15     7   ar
    32    15    10   ar
    33    17    20    1
@<TRIPOS>MOLECULE
*****
 29 33 0 0 0
SMALL
GASTEIGER

@<TRIPOS>ATOM
      1 C         143.5242  139.5188  162.1413 C.3     1  UNL1        0.0181
      2 C         143.1110  139.7339  160.7154 C.3     1  UNL1        0.0036
      3 C         142.6980  139.6355  159.2767 C.3     1  UNL1        0.0227
      4 C         142.6126  138.1817  158.9173 C.3     1  UNL1        0.0884
      5 C         142.9728  137.3815  160.1338 C.3     1  UNL1        0.0227
      6 C         143.2808  138.3408  161.2451 C.3     1  UNL1        0.0036
      7 N         142.2335  137.6257  157.5767 N.ar    1  UNL1       -0.2964
      8 C         141.3839  138.3094  156.5468 C.ar    1  UNL1        0.1796
      9 N         141.2628  137.3946  155.3643 N.ar    1  UNL1       -0.2223
     10 C         142.0375  136.1454  155.6634 C.ar    1  UNL1        0.1171
     11 C         142.2742  134.8964  154.8673 C.ar    1  UNL1        0.0238
     12 C         143.1108  133.7902  155.4385 C.ar    1  UNL1        0.0223
     13 C         143.7107  133.9330  156.8059 C.ar    1  UNL1        0.1006
     14 N         143.4740  135.1821  157.6020 N.ar    1  UNL1       -0.2252
     15 C         142.6374  136.2882  157.0308 C.ar    1  UNL1        0.1627
     16 C         143.9033  140.0748  163.4818 C.3     1  UNL1        0.0718
     17 N         142.8517  140.2883  164.5299 N.am    1  UNL1       -0.3025
     18 C         142.8116  139.4065  165.7426 C.2     1  UNL1        0.2458
     19 O         143.8231  138.3112  165.9073 O.2     1  UNL1       -0.2701
     20 H         142.1878  141.0072  164.4218 H       1  UNL1        0.1497
     21 C         141.7599  139.6200  166.7907 C.ar    1  UNL1        0.0534
     22 C         140.3117  139.6617  166.4025 C.ar    1  UNL1        0.0054
     23 C         139.2600  139.8752  167.4505 C.ar    1  UNL1        0.0115
     24 C         139.6566  140.0470  168.8869 C.ar    1  UNL1        0.0577
     25 CL        138.6050  140.2605  169.9349 Cl      1  UNL1       -0.0822
     26 C         141.1049  140.0053  169.2752 C.ar    1  UNL1        0.0115
     27 C         142.1565  139.7918  168.2272 C.ar    1  UNL1        0.0054
     28 C         145.7822  141.8487  163.7526 C.3     1  UNL1        0.0017
     29 C         145.3341  140.4174  163.7744 C.3     1  UNL1        0.0196
@<TRIPOS>BOND
     1    28    29    1
     2    29    16    1
     3    16    17    1
     4    17    18   am
     5    18    19    2
     6    18    21    1
     7    21    22   ar
     8    22    23   ar
     9    23    24   ar
    10    24    25    1
    11    24    26   ar
    12    26    27   ar
    13     1    16    1
    14     1     2    1
    15     2     3    1
    16     3     4    1
    17     4     7    1
    18     7     8   ar
    19     8     9   ar
    20     9    10   ar
    21    10    11   ar
    22    11    12   ar
    23    12    13   ar
    24    13    14   ar
    25    14    15   ar
    26     4     5    1
    27     6     5    1
    28    27    21   ar
    29     6     1    1
    30     6     2    1
    31    15     7   ar
    32    15    10   ar
    33    17    20    1
@<TRIPOS>MOLECULE
*****
 29 33 0 0 0
SMALL
GASTEIGER

@<TRIPOS>ATOM
      1 C         142.2143  137.4131  157.4325 C.3     1  UNL1        0.0181
      2 C         141.6082  136.5329  156.3798 C.3     1  UNL1        0.0036
      3 C         141.2800  135.5075  155.3354 C.3     1  UNL1        0.0227
      4 C         142.4820  134.6287  155.1547 C.3     1  UNL1        0.0884
      5 C         143.5533  135.1109  156.0873 C.3     1  UNL1        0.0227
      6 C         143.0132  136.2878  156.8445 C.3     1  UNL1        0.0036
      7 N         142.5934  133.4708  154.2075 N.ar    1  UNL1       -0.2964
      8 C         141.9487  133.3715  152.8568 C.ar    1  UNL1        0.1796
      9 N         142.3259  132.0483  152.2594 N.ar    1  UNL1       -0.2223
     10 C         143.2037  131.3299  153.2408 C.ar    1  UNL1        0.1171
     11 C         143.8739  129.9888  153.1937 C.ar    1  UNL1        0.0238
     12 C         144.7093  129.5268  154.3507 C.ar    1  UNL1        0.0223
     13 C         144.8746  130.4060  155.5547 C.ar    1  UNL1        0.1006
     14 N         144.2045  131.7471  155.6018 N.ar    1  UNL1       -0.2252
     15 C         143.3691  132.2091  154.4449 C.ar    1  UNL1        0.1627
     16 C         142.1030  138.5708  158.3795 C.3     1  UNL1        0.0718
     17 N         141.2512  138.4551  159.6088 N.am    1  UNL1       -0.3025
     18 C         141.8506  137.9639  160.8931 C.2     1  UNL1        0.2458
     19 O         143.3019  137.5885  160.9482 O.2     1  UNL1       -0.2701
     20 H         140.2987  138.7014  159.5726 H       1  UNL1        0.1497
     21 C         140.9988  137.8481  162.1224 C.ar    1  UNL1        0.0534
     22 C         139.5106  138.0058  162.0212 C.ar    1  UNL1        0.0054
     23 C         138.6588  137.8900  163.2504 C.ar    1  UNL1        0.0115
     24 C         139.2953  137.6166  164.5809 C.ar    1  UNL1        0.0577
     25 CL        138.4434  137.5008  165.8101 Cl      1  UNL1       -0.0822
     26 C         140.7835  137.4589  164.6821 C.ar    1  UNL1        0.0115
     27 C         141.6353  137.5747  163.4529 C.ar    1  UNL1        0.0054
     28 C         143.7136  139.9525  156.8805 C.3     1  UNL1        0.0017
     29 C         142.8435  139.8446  158.0975 C.3     1  UNL1        0.0196
@<TRIPOS>BOND
     1    28    29    1
     2    29    16    1
     3    16    17    1
     4    17    18   am
     5    18    19    2
     6    18    21    1
     7    21    22   ar
     8    22    23   ar
     9    23    24   ar
    10    24    25    1
    11    24    26   ar
    12    26    27   ar
    13     1    16    1
    14     1     2    1
    15     2     3    1
    16     3     4    1
    17     4     7    1
    18     7     8   ar
    19     8     9   ar
    20     9    10   ar
    21    10    11   ar
    22    11    12   ar
    23    12    13   ar
    24    13    14   ar
    25    14    15   ar
    26     4     5    1
    27     6     5    1
    28    27    21   ar
    29     6     1    1
    30     6     2    1
    31    15     7   ar
    32    15    10   ar
    33    17    20    1
@<TRIPOS>MOLECULE
*****
 29 33 0 0 0
SMALL
GASTEIGER

@<TRIPOS>ATOM
      1 C         137.2297  142.4059  156.1486 C.3     1  UNL1        0.0181
      2 C         137.7222  142.2872  157.5606 C.3     1  UNL1        0.0036
      3 C         138.4187  142.3902  158.8850 C.3     1  UNL1        0.0227
      4 C         139.4973  143.4253  158.7624 C.3     1  UNL1        0.0884
      5 C         139.4675  143.9621  157.3621 C.3     1  UNL1        0.0227
      6 C         138.3704  143.2587  156.6193 C.3     1  UNL1        0.0036
      7 N         140.4403  143.8492  159.8492 N.ar    1  UNL1       -0.2964
      8 C         141.9258  144.0077  159.7153 C.ar    1  UNL1        0.1796
      9 N         142.4668  144.4455  161.0441 N.ar    1  UNL1       -0.2223
     10 C         141.3156  144.5576  161.9992 C.ar    1  UNL1        0.1171
     11 C         141.2461  144.9476  163.4459 C.ar    1  UNL1        0.0238
     12 C         139.9240  144.9691  164.1541 C.ar    1  UNL1        0.0223
     13 C         138.6715  144.6005  163.4156 C.ar    1  UNL1        0.1006
     14 N         138.7410  144.2105  161.9689 N.ar    1  UNL1       -0.2252
     15 C         140.0631  144.1890  161.2607 C.ar    1  UNL1        0.1627
     16 C         136.2868  141.9820  155.0618 C.3     1  UNL1        0.0718
     17 N         134.8195  141.8588  155.3478 N.am    1  UNL1       -0.3025
     18 C         134.2339  140.5241  155.7023 C.2     1  UNL1        0.2458
     19 O         135.1157  139.3126  155.7710 O.2     1  UNL1       -0.2701
     20 H         134.2408  142.6540  155.3027 H       1  UNL1        0.1497
     21 C         132.7665  140.4009  155.9883 C.ar    1  UNL1        0.0534
     22 C         131.8021  141.3866  155.3982 C.ar    1  UNL1        0.0054
     23 C         130.3348  141.2634  155.6841 C.ar    1  UNL1        0.0115
     24 C         129.8319  140.1545  156.5602 C.ar    1  UNL1        0.0577
     25 CL        128.3646  140.0314  156.8461 Cl      1  UNL1       -0.0822
     26 C         130.7963  139.1688  157.1503 C.ar    1  UNL1        0.0115
     27 C         132.2637  139.2920  156.8644 C.ar    1  UNL1        0.0054
     28 C         137.8681  140.6334  153.5027 C.3     1  UNL1        0.0017
     29 C         136.8112  141.6813  153.6890 C.3     1  UNL1        0.0196
@<TRIPOS>BOND
     1    28    29    1
     2    29    16    1
     3    16    17    1
     4    17    18   am
     5    18    19    2
     6    18    21    1
     7    21    22   ar
     8    22    23   ar
     9    23    24   ar
    10    24    25    1
    11    24    26   ar
    12    26    27   ar
    13     1    16    1
    14     1     2    1
    15     2     3    1
    16     3     4    1
    17     4     7    1
    18     7     8   ar
    19     8     9   ar
    20     9    10   ar
    21    10    11   ar
    22    11    12   ar
    23    12    13   ar
    24    13    14   ar
    25    14    15   ar
    26     4     5    1
    27     6     5    1
    28    27    21   ar
    29     6     1    1
    30     6     2    1
    31    15     7   ar
    32    15    10   ar
    33    17    20    1
@<TRIPOS>MOLECULE
*****
 29 33 0 0 0
SMALL
GASTEIGER

@<TRIPOS>ATOM
      1 C         140.4355  145.0885  157.8803 C.3     1  UNL1        0.0181
      2 C         139.8735  144.0740  158.8316 C.3     1  UNL1        0.0036
      3 C         139.3803  143.2744  160.0010 C.3     1  UNL1        0.0227
      4 C         139.5923  144.0892  161.2423 C.3     1  UNL1        0.0884
      5 C         140.2164  145.3925  160.8403 C.3     1  UNL1        0.0227
      6 C         140.3902  145.3832  159.3504 C.3     1  UNL1        0.0036
      7 N         139.2416  143.6737  162.6404 N.ar    1  UNL1       -0.2964
      8 C         137.8564  143.5537  163.2033 C.ar    1  UNL1        0.1796
      9 N         137.9734  143.1111  164.6317 N.ar    1  UNL1       -0.2223
     10 C         139.4308  142.9576  164.9516 C.ar    1  UNL1        0.1171
     11 C         140.1455  142.5462  166.2046 C.ar    1  UNL1        0.0238
     12 C         141.6439  142.4825  166.2268 C.ar    1  UNL1        0.0223
     13 C         142.4277  142.8302  164.9961 C.ar    1  UNL1        0.1006
     14 N         141.7131  143.2416  163.7431 N.ar    1  UNL1       -0.2252
     15 C         140.2147  143.3054  163.7209 C.ar    1  UNL1        0.1627
     16 C         140.7862  145.5039  156.4824 C.3     1  UNL1        0.0718
     17 N         140.6472  146.9392  156.0693 N.am    1  UNL1       -0.3025
     18 C         139.3801  147.4141  155.4221 C.2     1  UNL1        0.2458
     19 O         138.2519  146.4536  155.1878 O.2     1  UNL1       -0.2701
     20 H         141.3876  147.5696  156.2231 H       1  UNL1        0.1497
     21 C         139.2411  148.8495  155.0090 C.ar    1  UNL1        0.0534
     22 C         138.5587  149.8286  155.9175 C.ar    1  UNL1        0.0054
     23 C         138.4197  151.2639  155.5045 C.ar    1  UNL1        0.0115
     24 C         138.9632  151.7200  154.1829 C.ar    1  UNL1        0.0577
     25 CL        138.8242  153.1553  153.7699 Cl      1  UNL1       -0.0822
     26 C         139.6456  150.7408  153.2743 C.ar    1  UNL1        0.0115
     27 C         139.7846  149.3055  153.6873 C.ar    1  UNL1        0.0054
     28 C         142.7484  144.2704  155.3084 C.3     1  UNL1        0.0017
     29 C         141.2758  144.4841  155.4973 C.3     1  UNL1        0.0196
@<TRIPOS>BOND
     1    28    29    1
     2    29    16    1
     3    16    17    1
     4    17    18   am
     5    18    19    2
     6    18    21    1
     7    21    22   ar
     8    22    23   ar
     9    23    24   ar
    10    24    25    1
    11    24    26   ar
    12    26    27   ar
    13     1    16    1
    14     1     2    1
    15     2     3    1
    16     3     4    1
    17     4     7    1
    18     7     8   ar
    19     8     9   ar
    20     9    10   ar
    21    10    11   ar
    22    11    12   ar
    23    12    13   ar
    24    13    14   ar
    25    14    15   ar
    26     4     5    1
    27     6     5    1
    28    27    21   ar
    29     6     1    1
    30     6     2    1
    31    15     7   ar
    32    15    10   ar
    33    17    20    1
@<TRIPOS>MOLECULE
*****
 29 33 0 0 0
SMALL
GASTEIGER

@<TRIPOS>ATOM
      1 C         140.0542  138.2198  157.5503 C.3     1  UNL1        0.0181
      2 C         140.2061  138.2631  159.0421 C.3     1  UNL1        0.0036
      3 C         140.1330  138.5246  160.5173 C.3     1  UNL1        0.0227
      4 C         139.0900  139.5769  160.7506 C.3     1  UNL1        0.0884
      5 C         138.5182  139.9659  159.4195 C.3     1  UNL1        0.0227
      6 C         139.2080  139.1540  158.3636 C.3     1  UNL1        0.0036
      7 N         138.6890  140.1412  162.0813 N.ar    1  UNL1       -0.2964
      8 C         138.2567  141.5530  162.3462 C.ar    1  UNL1        0.1796
      9 N         137.9505  141.6771  163.8093 N.ar    1  UNL1       -0.2223
     10 C         138.1934  140.3421  164.4487 C.ar    1  UNL1        0.1171
     11 C         138.0580  139.8682  165.8654 C.ar    1  UNL1        0.0238
     12 C         138.3790  138.4450  166.2140 C.ar    1  UNL1        0.0223
     13 C         138.8354  137.4958  165.1460 C.ar    1  UNL1        0.1006
     14 N         138.9708  137.9697  163.7293 N.ar    1  UNL1       -0.2252
     15 C         138.6498  139.3929  163.3807 C.ar    1  UNL1        0.1627
     16 C         140.4552  137.6556  156.2197 C.3     1  UNL1        0.0718
     17 N         141.0397  136.2768  156.1351 N.am    1  UNL1       -0.3025
     18 C         142.4772  136.0480  156.4975 C.2     1  UNL1        0.2458
     19 O         143.3302  137.1981  156.9445 O.2     1  UNL1       -0.2701
     20 H         140.4799  135.5219  155.8417 H       1  UNL1        0.1497
     21 C         143.0618  134.6691  156.4129 C.ar    1  UNL1        0.0534
     22 C         142.9042  133.8635  155.1576 C.ar    1  UNL1        0.0054
     23 C         143.4887  132.4847  155.0729 C.ar    1  UNL1        0.0115
     24 C         144.2309  131.9115  156.2437 C.ar    1  UNL1        0.0577
     25 CL        144.8154  130.5327  156.1591 Cl      1  UNL1       -0.0822
     26 C         144.3884  132.7172  157.4991 C.ar    1  UNL1        0.0115
     27 C         143.8039  134.0960  157.5838 C.ar    1  UNL1        0.0054
     28 C         141.3519  138.5036  153.9335 C.3     1  UNL1        0.0017
     29 C         140.2716  138.4701  154.9735 C.3     1  UNL1        0.0196
@<TRIPOS>BOND
     1    28    29    1
     2    29    16    1
     3    16    17    1
     4    17    18   am
     5    18    19    2
     6    18    21    1
     7    21    22   ar
     8    22    23   ar
     9    23    24   ar
    10    24    25    1
    11    24    26   ar
    12    26    27   ar
    13     1    16    1
    14     1     2    1
    15     2     3    1
    16     3     4    1
    17     4     7    1
    18     7     8   ar
    19     8     9   ar
    20     9    10   ar
    21    10    11   ar
    22    11    12   ar
    23    12    13   ar
    24    13    14   ar
    25    14    15   ar
    26     4     5    1
    27     6     5    1
    28    27    21   ar
    29     6     1    1
    30     6     2    1
    31    15     7   ar
    32    15    10   ar
    33    17    20    1
@<TRIPOS>MOLECULE
*****
 29 33 0 0 0
SMALL
GASTEIGER

@<TRIPOS>ATOM
      1 C         137.8040  140.8182  157.0260 C.3     1  UNL1        0.0181
      2 C         138.2794  140.7608  158.4476 C.3     1  UNL1        0.0036
      3 C         138.9334  140.4672  159.7652 C.3     1  UNL1        0.0227
      4 C         139.8865  139.3264  159.5659 C.3     1  UNL1        0.0884
      5 C         139.8217  138.9146  158.1249 C.3     1  UNL1        0.0227
      6 C         138.8285  139.8011  157.4338 C.3     1  UNL1        0.0036
      7 N         140.7525  138.7060  160.6219 N.ar    1  UNL1       -0.2964
      8 C         142.2091  138.3749  160.4853 C.ar    1  UNL1        0.1796
      9 N         142.6707  137.7721  161.7790 N.ar    1  UNL1       -0.2223
     10 C         141.4994  137.7307  162.7151 C.ar    1  UNL1        0.1171
     11 C         141.3591  137.2419  164.1263 C.ar    1  UNL1        0.0238
     12 C         140.0334  137.3303  164.8223 C.ar    1  UNL1        0.0223
     13 C         138.8479  137.9075  164.1072 C.ar    1  UNL1        0.1006
     14 N         138.9881  138.3962  162.6960 N.ar    1  UNL1       -0.2252
     15 C         140.3138  138.3078  162.0000 C.ar    1  UNL1        0.1627
     16 C         136.9381  141.4385  155.9700 C.3     1  UNL1        0.0718
     17 N         135.4474  141.4541  156.1362 N.am    1  UNL1       -0.3025
     18 C         134.6405  140.2403  155.7821 C.2     1  UNL1        0.2458
     19 O         135.3242  139.0107  155.2618 O.2     1  UNL1       -0.2701
     20 H         134.9987  142.2611  156.4777 H       1  UNL1        0.1497
     21 C         133.1497  140.2560  155.9484 C.ar    1  UNL1        0.0534
     22 C         132.3433  141.3844  155.3775 C.ar    1  UNL1        0.0054
     23 C         130.8526  141.4002  155.5437 C.ar    1  UNL1        0.0115
     24 C         130.1684  140.2873  156.2809 C.ar    1  UNL1        0.0577
     25 CL        128.6777  140.3030  156.4471 Cl      1  UNL1       -0.0822
     26 C         130.9749  139.1588  156.8518 C.ar    1  UNL1        0.0115
     27 C         132.4655  139.1430  156.6856 C.ar    1  UNL1        0.0054
     28 C         139.0243  142.3803  154.7409 C.3     1  UNL1        0.0017
     29 C         137.5628  142.0432  154.7476 C.3     1  UNL1        0.0196
@<TRIPOS>BOND
     1    28    29    1
     2    29    16    1
     3    16    17    1
     4    17    18   am
     5    18    19    2
     6    18    21    1
     7    21    22   ar
     8    22    23   ar
     9    23    24   ar
    10    24    25    1
    11    24    26   ar
    12    26    27   ar
    13     1    16    1
    14     1     2    1
    15     2     3    1
    16     3     4    1
    17     4     7    1
    18     7     8   ar
    19     8     9   ar
    20     9    10   ar
    21    10    11   ar
    22    11    12   ar
    23    12    13   ar
    24    13    14   ar
    25    14    15   ar
    26     4     5    1
    27     6     5    1
    28    27    21   ar
    29     6     1    1
    30     6     2    1
    31    15     7   ar
    32    15    10   ar
    33    17    20    1
@<TRIPOS>MOLECULE
*****
 29 33 0 0 0
SMALL
GASTEIGER

@<TRIPOS>ATOM
      1 C         139.8727  138.9148  157.8335 C.3     1  UNL1        0.0181
      2 C         139.6033  137.8924  156.7695 C.3     1  UNL1        0.0036
      3 C         139.6354  136.7941  155.7482 C.3     1  UNL1        0.0227
      4 C         141.0200  136.2177  155.7305 C.3     1  UNL1        0.0884
      5 C         141.8439  136.9597  156.7408 C.3     1  UNL1        0.0227
      6 C         140.9683  137.9947  157.3829 C.3     1  UNL1        0.0036
      7 N         141.4971  135.0962  154.8561 N.ar    1  UNL1       -0.2964
      8 C         141.4318  135.0572  153.3580 C.ar    1  UNL1        0.1796
      9 N         142.0176  133.7538  152.9023 N.ar    1  UNL1       -0.2223
     10 C         142.4450  132.9871  154.1187 C.ar    1  UNL1        0.1171
     11 C         143.0856  131.6408  154.2828 C.ar    1  UNL1        0.0238
     12 C         143.4045  131.1242  155.6545 C.ar    1  UNL1        0.0223
     13 C         143.0828  131.9539  156.8620 C.ar    1  UNL1        0.1006
     14 N         142.4422  133.3002  156.6979 N.ar    1  UNL1       -0.2252
     15 C         142.1233  133.8169  155.3263 C.ar    1  UNL1        0.1627
     16 C         139.3956  140.0362  158.7079 C.3     1  UNL1        0.0718
     17 N         139.4695  139.9070  160.2005 N.am    1  UNL1       -0.3025
     18 C         138.2291  139.6094  160.9899 C.2     1  UNL1        0.2458
     19 O         136.9150  139.4411  160.2866 O.2     1  UNL1       -0.2701
     20 H         140.3320  140.0175  160.6621 H       1  UNL1        0.1497
     21 C         138.3030  139.4802  162.4825 C.ar    1  UNL1        0.0534
     22 C         137.9467  140.6471  163.3549 C.ar    1  UNL1        0.0054
     23 C         138.0205  140.5179  164.8475 C.ar    1  UNL1        0.0115
     24 C         138.4507  139.2217  165.4677 C.ar    1  UNL1        0.0577
     25 CL        138.5246  139.0925  166.9603 Cl      1  UNL1       -0.0822
     26 C         138.8071  138.0546  164.5953 C.ar    1  UNL1        0.0115
     27 C         138.7332  138.1838  163.1027 C.ar    1  UNL1        0.0054
     28 C         138.9641  142.5961  158.8122 C.3     1  UNL1        0.0017
     29 C         138.8446  141.2870  158.0898 C.3     1  UNL1        0.0196
@<TRIPOS>BOND
     1    28    29    1
     2    29    16    1
     3    16    17    1
     4    17    18   am
     5    18    19    2
     6    18    21    1
     7    21    22   ar
     8    22    23   ar
     9    23    24   ar
    10    24    25    1
    11    24    26   ar
    12    26    27   ar
    13     1    16    1
    14     1     2    1
    15     2     3    1
    16     3     4    1
    17     4     7    1
    18     7     8   ar
    19     8     9   ar
    20     9    10   ar
    21    10    11   ar
    22    11    12   ar
    23    12    13   ar
    24    13    14   ar
    25    14    15   ar
    26     4     5    1
    27     6     5    1
    28    27    21   ar
    29     6     1    1
    30     6     2    1
    31    15     7   ar
    32    15    10   ar
    33    17    20    1
@<TRIPOS>MOLECULE
*****
 29 33 0 0 0
SMALL
GASTEIGER

@<TRIPOS>ATOM
      1 C         142.8791  137.4630  156.8843 C.3     1  UNL1        0.0181
      2 C         141.5115  137.7912  157.4061 C.3     1  UNL1        0.0036
      3 C         140.2939  138.1605  158.2005 C.3     1  UNL1        0.0227
      4 C         140.7243  138.4255  159.6127 C.3     1  UNL1        0.0884
      5 C         142.2081  138.2200  159.6912 C.3     1  UNL1        0.0227
      6 C         142.6946  137.8280  158.3275 C.3     1  UNL1        0.0036
      7 N         139.8284  138.8257  160.7472 N.ar    1  UNL1       -0.2964
      8 C         138.7024  139.8141  160.6750 C.ar    1  UNL1        0.1796
      9 N         138.0793  139.9070  162.0363 N.ar    1  UNL1       -0.2223
     10 C         138.8203  138.9761  162.9498 C.ar    1  UNL1        0.1171
     11 C         138.6503  138.6507  164.4041 C.ar    1  UNL1        0.0238
     12 C         139.5613  137.6570  165.0617 C.ar    1  UNL1        0.0223
     13 C         140.6423  136.9887  164.2650 C.ar    1  UNL1        0.1006
     14 N         140.8123  137.3141  162.8107 N.ar    1  UNL1       -0.2252
     15 C         139.9013  138.3079  162.1531 C.ar    1  UNL1        0.1627
     16 C         143.7750  137.0628  155.7499 C.3     1  UNL1        0.0718
     17 N         144.1953  135.6312  155.5952 N.am    1  UNL1       -0.3025
     18 C         143.1651  134.5697  155.3465 C.2     1  UNL1        0.2458
     19 O         141.7145  134.9397  155.2525 O.2     1  UNL1       -0.2701
     20 H         145.1474  135.3884  155.6569 H       1  UNL1        0.1497
     21 C         143.5855  133.1381  155.1918 C.ar    1  UNL1        0.0534
     22 C         144.5319  132.5234  156.1799 C.ar    1  UNL1        0.0054
     23 C         144.9523  131.0919  156.0253 C.ar    1  UNL1        0.0115
     24 C         144.4263  130.2750  154.8825 C.ar    1  UNL1        0.0577
     25 CL        144.8467  128.8435  154.7278 Cl      1  UNL1       -0.0822
     26 C         143.4799  130.8897  153.8943 C.ar    1  UNL1        0.0115
     27 C         143.0595  132.3212  154.0489 C.ar    1  UNL1        0.0054
     28 C         144.7183  139.4331  155.2580 C.3     1  UNL1        0.0017
     29 C         144.2506  138.0941  154.7699 C.3     1  UNL1        0.0196
@<TRIPOS>BOND
     1    28    29    1
     2    29    16    1
     3    16    17    1
     4    17    18   am
     5    18    19    2
     6    18    21    1
     7    21    22   ar
     8    22    23   ar
     9    23    24   ar
    10    24    25    1
    11    24    26   ar
    12    26    27   ar
    13     1    16    1
    14     1     2    1
    15     2     3    1
    16     3     4    1
    17     4     7    1
    18     7     8   ar
    19     8     9   ar
    20     9    10   ar
    21    10    11   ar
    22    11    12   ar
    23    12    13   ar
    24    13    14   ar
    25    14    15   ar
    26     4     5    1
    27     6     5    1
    28    27    21   ar
    29     6     1    1
    30     6     2    1
    31    15     7   ar
    32    15    10   ar
    33    17    20    1
