@<TRIPOS>MOLECULE
*****
 27 31 0 0 0
SMALL
GASTEIGER

@<TRIPOS>ATOM
      1 C         139.6357  138.8337  162.7185 C.ar    1  UNL1        0.0885
      2 C         139.0571  137.6520  163.4386 C.ar    1  UNL1        0.0197
      3 C         138.8325  137.7130  164.9204 C.ar    1  UNL1        0.0030
      4 C         139.1865  138.9558  165.6821 C.ar    1  UNL1        0.0174
      5 C         138.9619  139.0167  167.1640 C.ar    1  UNL1       -0.0027
      6 C         139.3160  140.2595  167.9257 C.ar    1  UNL1       -0.0207
      7 C         139.8946  141.4413  167.2055 C.ar    1  UNL1       -0.0027
      8 C         140.1192  141.3803  165.7237 C.ar    1  UNL1        0.0188
      9 C         139.7652  140.1375  164.9620 C.ar    1  UNL1        0.0812
     10 N         139.9897  140.0765  163.4802 N.ar    1  UNL1       -0.2448
     11 C         142.3989  137.9358  161.2325 C.3     1  UNL1        0.0528
     12 C         141.1304  138.3600  160.5536 C.ar    1  UNL1        0.0705
     13 C         139.8603  138.7727  161.2366 C.ar    1  UNL1        0.0635
     14 S         138.8542  139.1138  160.1776 S.2     1  UNL1       -0.0459
     15 C         139.5025  138.9119  158.8401 C.ar    1  UNL1        0.1966
     16 N         139.2814  138.9978  157.3590 N.ar    1  UNL1       -0.1973
     17 C         140.5514  138.5851  156.6760 C.ar    1  UNL1        0.2217
     18 N         141.5575  138.2440  157.7350 N.ar    1  UNL1       -0.1408
     19 N         140.9093  138.4460  159.0725 N.ar    1  UNL1       -0.2087
     20 C         139.0914  140.3205  169.4075 C.3     1  UNL1        0.0437
     21 C         140.2517  140.1833  170.3482 C.3     1  UNL1        0.0768
     22 N         141.4497  141.0730  170.1963 N.3     1  UNL1       -0.2737
     23 C         141.6617  142.3908  170.8808 C.3     1  UNL1        0.0721
     24 C         142.9891  142.9334  170.4408 C.3     1  UNL1        0.0187
     25 C         143.5975  141.9509  169.4843 C.3     1  UNL1        0.0174
     26 C         142.6460  140.8011  169.3333 C.3     1  UNL1        0.0576
     27 C         142.8544  139.5918  168.4706 C.3     1  UNL1        0.0173
@<TRIPOS>BOND
     1    11    12    1
     2    12    13   ar
     3    13     1    1
     4     1     2   ar
     5     2     3   ar
     6     3     4   ar
     7     4     5   ar
     8     5     6   ar
     9     6    20    1
    10    20    21    1
    11    21    22    1
    12    22    23    1
    13    23    24    1
    14    24    25    1
    15    25    26    1
    16    26    27    1
    17     6     7   ar
    18     7     8   ar
    19     8     9   ar
    20     9    10   ar
    21    13    14   ar
    22    14    15   ar
    23    15    16   ar
    24    16    17   ar
    25    17    18   ar
    26    18    19   ar
    27    19    12   ar
    28    10     1   ar
    29    19    15   ar
    30     9     4   ar
    31    26    22    1
@<TRIPOS>MOLECULE
*****
 27 31 0 0 0
SMALL
GASTEIGER

@<TRIPOS>ATOM
      1 C         141.1732  139.2075  162.3995 C.ar    1  UNL1        0.0885
      2 C         142.1123  140.1673  163.0680 C.ar    1  UNL1        0.0197
      3 C         141.8937  140.5557  164.5002 C.ar    1  UNL1        0.0030
      4 C         140.7359  139.9845  165.2639 C.ar    1  UNL1        0.0174
      5 C         140.5173  140.3730  166.6962 C.ar    1  UNL1       -0.0027
      6 C         139.3595  139.8017  167.4598 C.ar    1  UNL1       -0.0207
      7 C         138.4204  138.8419  166.7913 C.ar    1  UNL1       -0.0027
      8 C         138.6390  138.4535  165.3591 C.ar    1  UNL1        0.0188
      9 C         139.7968  139.0247  164.5954 C.ar    1  UNL1        0.0812
     10 N         140.0154  138.6363  163.1632 N.ar    1  UNL1       -0.2448
     11 C         143.8451  137.7803  161.1854 C.3     1  UNL1        0.0528
     12 C         142.6199  138.1630  160.4092 C.ar    1  UNL1        0.0705
     13 C         141.3918  138.8190  160.9672 C.ar    1  UNL1        0.0635
     14 S         140.4207  139.0183  159.8415 S.2     1  UNL1       -0.0459
     15 C         141.0486  138.4855  158.5878 C.ar    1  UNL1        0.1966
     16 N         140.8365  138.2794  157.1172 N.ar    1  UNL1       -0.1973
     17 C         142.0646  137.6234  156.5592 C.ar    1  UNL1        0.2217
     18 N         143.0357  137.4240  157.6849 N.ar    1  UNL1       -0.1408
     19 N         142.4078  137.9569  158.9387 N.ar    1  UNL1       -0.2087
     20 C         139.1408  140.1902  168.8920 C.3     1  UNL1        0.0437
     21 C         140.2455  140.0198  169.8924 C.3     1  UNL1        0.0768
     22 N         141.3741  141.0068  169.9389 N.3     1  UNL1       -0.2737
     23 C         142.8271  140.6950  169.7351 C.3     1  UNL1        0.0721
     24 C         143.5988  141.9744  169.8675 C.3     1  UNL1        0.0187
     25 C         142.6227  143.0770  170.1532 C.3     1  UNL1        0.0174
     26 C         141.2477  142.4790  170.1973 C.3     1  UNL1        0.0576
     27 C         139.9707  143.2226  170.4547 C.3     1  UNL1        0.0173
@<TRIPOS>BOND
     1    11    12    1
     2    12    13   ar
     3    13     1    1
     4     1     2   ar
     5     2     3   ar
     6     3     4   ar
     7     4     5   ar
     8     5     6   ar
     9     6    20    1
    10    20    21    1
    11    21    22    1
    12    22    23    1
    13    23    24    1
    14    24    25    1
    15    25    26    1
    16    26    27    1
    17     6     7   ar
    18     7     8   ar
    19     8     9   ar
    20     9    10   ar
    21    13    14   ar
    22    14    15   ar
    23    15    16   ar
    24    16    17   ar
    25    17    18   ar
    26    18    19   ar
    27    19    12   ar
    28    10     1   ar
    29    19    15   ar
    30     9     4   ar
    31    26    22    1
@<TRIPOS>MOLECULE
*****
 27 31 0 0 0
SMALL
GASTEIGER

@<TRIPOS>ATOM
      1 C         139.4197  140.5004  163.7120 C.ar    1  UNL1        0.0885
      2 C         138.4021  140.5803  164.8111 C.ar    1  UNL1        0.0197
      3 C         138.8041  140.2940  166.2275 C.ar    1  UNL1        0.0030
      4 C         140.2237  139.9279  166.5449 C.ar    1  UNL1        0.0174
      5 C         140.6257  139.6417  167.9614 C.ar    1  UNL1       -0.0027
      6 C         142.0453  139.2755  168.2788 C.ar    1  UNL1       -0.0207
      7 C         143.0629  139.1957  167.1796 C.ar    1  UNL1       -0.0027
      8 C         142.6609  139.4820  165.7631 C.ar    1  UNL1        0.0188
      9 C         141.2413  139.8481  165.4458 C.ar    1  UNL1        0.0812
     10 N         140.8393  140.1343  164.0293 N.ar    1  UNL1       -0.2448
     11 C         138.3293  138.3143  161.5483 C.3     1  UNL1        0.0528
     12 C         138.5165  139.7819  161.3009 C.ar    1  UNL1        0.0705
     13 C         139.0178  140.7867  162.2954 C.ar    1  UNL1        0.0635
     14 S         139.0465  142.1281  161.6247 S.2     1  UNL1       -0.0459
     15 C         138.5630  141.9523  160.2157 C.ar    1  UNL1        0.1966
     16 N         138.2819  142.6727  158.9304 N.ar    1  UNL1       -0.1973
     17 C         137.7807  141.6678  157.9359 C.ar    1  UNL1        0.2217
     18 N         137.7520  140.3264  158.6066 N.ar    1  UNL1       -0.1408
     19 N         138.2355  140.5022  160.0156 N.ar    1  UNL1       -0.2087
     20 C         142.4473  138.9893  169.6952 C.3     1  UNL1        0.0437
     21 C         142.5048  140.1032  170.6983 C.3     1  UNL1        0.0768
     22 N         141.7340  141.3677  170.4599 N.3     1  UNL1       -0.2737
     23 C         140.3901  141.7030  171.0358 C.3     1  UNL1        0.0721
     24 C         139.9972  143.0614  170.5356 C.3     1  UNL1        0.0187
     25 C         141.0983  143.5657  169.6504 C.3     1  UNL1        0.0174
     26 C         142.1717  142.5189  169.6037 C.3     1  UNL1        0.0576
     27 C         143.4570  142.6077  168.8356 C.3     1  UNL1        0.0173
@<TRIPOS>BOND
     1    11    12    1
     2    12    13   ar
     3    13     1    1
     4     1     2   ar
     5     2     3   ar
     6     3     4   ar
     7     4     5   ar
     8     5     6   ar
     9     6    20    1
    10    20    21    1
    11    21    22    1
    12    22    23    1
    13    23    24    1
    14    24    25    1
    15    25    26    1
    16    26    27    1
    17     6     7   ar
    18     7     8   ar
    19     8     9   ar
    20     9    10   ar
    21    13    14   ar
    22    14    15   ar
    23    15    16   ar
    24    16    17   ar
    25    17    18   ar
    26    18    19   ar
    27    19    12   ar
    28    10     1   ar
    29    19    15   ar
    30     9     4   ar
    31    26    22    1
@<TRIPOS>MOLECULE
*****
 27 31 0 0 0
SMALL
GASTEIGER

@<TRIPOS>ATOM
      1 C         140.5932  143.5883  162.5931 C.ar    1  UNL1        0.0885
      2 C         140.3622  144.5185  163.7469 C.ar    1  UNL1        0.0197
      3 C         140.0823  143.9645  165.1124 C.ar    1  UNL1        0.0030
      4 C         140.0332  142.4803  165.3241 C.ar    1  UNL1        0.0174
      5 C         139.7532  141.9263  166.6897 C.ar    1  UNL1       -0.0027
      6 C         139.7041  140.4421  166.9014 C.ar    1  UNL1       -0.0207
      7 C         139.9351  139.5119  165.7475 C.ar    1  UNL1       -0.0027
      8 C         140.2151  140.0659  164.3820 C.ar    1  UNL1        0.0188
      9 C         140.2641  141.5501  164.1703 C.ar    1  UNL1        0.0812
     10 N         140.5441  142.1041  162.8048 N.ar    1  UNL1       -0.2448
     11 C         143.3170  143.1248  160.8565 C.3     1  UNL1        0.0528
     12 C         142.1252  143.9292  160.4293 C.ar    1  UNL1        0.0705
     13 C         140.8732  144.1422  161.2275 C.ar    1  UNL1        0.0635
     14 S         139.9503  145.0065  160.4204 S.2     1  UNL1       -0.0459
     15 C         140.6319  145.3276  159.1234 C.ar    1  UNL1        0.1966
     16 N         140.4828  146.0602  157.8230 N.ar    1  UNL1       -0.1973
     17 C         141.7348  145.8472  157.0248 C.ar    1  UNL1        0.2217
     18 N         142.6577  144.9829  157.8319 N.ar    1  UNL1       -0.1408
     19 N         141.9761  144.6618  159.1289 N.ar    1  UNL1       -0.2087
     20 C         139.4241  139.8882  168.2669 C.3     1  UNL1        0.0437
     21 C         139.7148  140.7136  169.4853 C.3     1  UNL1        0.0768
     22 N         141.0875  141.2796  169.6977 N.3     1  UNL1       -0.2737
     23 C         142.3615  140.4928  169.7868 C.3     1  UNL1        0.0721
     24 C         143.4887  141.4587  170.0026 C.3     1  UNL1        0.0187
     25 C         142.9113  142.8425  170.0468 C.3     1  UNL1        0.0174
     26 C         141.4273  142.7317  169.8584 C.3     1  UNL1        0.0576
     27 C         140.4540  143.8728  169.8348 C.3     1  UNL1        0.0173
@<TRIPOS>BOND
     1    11    12    1
     2    12    13   ar
     3    13     1    1
     4     1     2   ar
     5     2     3   ar
     6     3     4   ar
     7     4     5   ar
     8     5     6   ar
     9     6    20    1
    10    20    21    1
    11    21    22    1
    12    22    23    1
    13    23    24    1
    14    24    25    1
    15    25    26    1
    16    26    27    1
    17     6     7   ar
    18     7     8   ar
    19     8     9   ar
    20     9    10   ar
    21    13    14   ar
    22    14    15   ar
    23    15    16   ar
    24    16    17   ar
    25    17    18   ar
    26    18    19   ar
    27    19    12   ar
    28    10     1   ar
    29    19    15   ar
    30     9     4   ar
    31    26    22    1
@<TRIPOS>MOLECULE
*****
 27 31 0 0 0
SMALL
GASTEIGER

@<TRIPOS>ATOM
      1 C         141.3375  138.3752  159.6659 C.ar    1  UNL1        0.0885
      2 C         139.8590  138.5894  159.5309 C.ar    1  UNL1        0.0197
      3 C         138.9692  138.4563  160.7311 C.ar    1  UNL1        0.0030
      4 C         139.5579  138.1091  162.0664 C.ar    1  UNL1        0.0174
      5 C         138.6681  137.9761  163.2666 C.ar    1  UNL1       -0.0027
      6 C         139.2568  137.6289  164.6019 C.ar    1  UNL1       -0.0207
      7 C         140.7353  137.4147  164.7369 C.ar    1  UNL1       -0.0027
      8 C         141.6251  137.5477  163.5367 C.ar    1  UNL1        0.0188
      9 C         141.0364  137.8950  162.2014 C.ar    1  UNL1        0.0812
     10 N         141.9261  138.0280  161.0012 N.ar    1  UNL1       -0.2448
     11 C         142.6246  141.1508  158.5305 C.3     1  UNL1        0.0528
     12 C         142.8189  139.7841  157.9438 C.ar    1  UNL1        0.0705
     13 C         142.2273  138.5083  158.4657 C.ar    1  UNL1        0.0635
     14 S         142.6817  137.3889  157.5766 S.2     1  UNL1       -0.0459
     15 C         143.5542  137.9728  156.5053 C.ar    1  UNL1        0.1966
     16 N         144.3743  137.6419  155.2937 N.ar    1  UNL1       -0.1973
     17 C         144.9659  138.9176  154.7718 C.ar    1  UNL1        0.2217
     18 N         144.5115  140.0370  155.6609 N.ar    1  UNL1       -0.1408
     19 N         143.6390  139.4531  156.7322 N.ar    1  UNL1       -0.2087
     20 C         138.3670  137.4958  165.8021 C.3     1  UNL1        0.0437
     21 C         137.9774  138.7141  166.5857 C.3     1  UNL1        0.0768
     22 N         138.9460  139.8493  166.7381 N.3     1  UNL1       -0.2737
     23 C         139.9592  140.0026  167.8335 C.3     1  UNL1        0.0721
     24 C         140.7109  141.2785  167.5944 C.3     1  UNL1        0.0187
     25 C         140.1621  141.9136  166.3512 C.3     1  UNL1        0.0174
     26 C         139.0714  141.0303  165.8220 C.3     1  UNL1        0.0576
     27 C         138.2503  141.2836  164.5926 C.3     1  UNL1        0.0173
@<TRIPOS>BOND
     1    11    12    1
     2    12    13   ar
     3    13     1    1
     4     1     2   ar
     5     2     3   ar
     6     3     4   ar
     7     4     5   ar
     8     5     6   ar
     9     6    20    1
    10    20    21    1
    11    21    22    1
    12    22    23    1
    13    23    24    1
    14    24    25    1
    15    25    26    1
    16    26    27    1
    17     6     7   ar
    18     7     8   ar
    19     8     9   ar
    20     9    10   ar
    21    13    14   ar
    22    14    15   ar
    23    15    16   ar
    24    16    17   ar
    25    17    18   ar
    26    18    19   ar
    27    19    12   ar
    28    10     1   ar
    29    19    15   ar
    30     9     4   ar
    31    26    22    1
@<TRIPOS>MOLECULE
*****
 27 31 0 0 0
SMALL
GASTEIGER

@<TRIPOS>ATOM
      1 C         142.0619  143.1122  163.1928 C.ar    1  UNL1        0.0885
      2 C         143.1668  143.6642  164.0440 C.ar    1  UNL1        0.0197
      3 C         143.4973  143.0171  165.3562 C.ar    1  UNL1        0.0030
      4 C         142.7230  141.8180  165.8172 C.ar    1  UNL1        0.0174
      5 C         143.0536  141.1709  167.1295 C.ar    1  UNL1       -0.0027
      6 C         142.2792  139.9717  167.5905 C.ar    1  UNL1       -0.0207
      7 C         141.1743  139.4198  166.7393 C.ar    1  UNL1       -0.0027
      8 C         140.8438  140.0669  165.4271 C.ar    1  UNL1        0.0188
      9 C         141.6181  141.2660  164.9660 C.ar    1  UNL1        0.0812
     10 N         141.2876  141.9131  163.6538 N.ar    1  UNL1       -0.2448
     11 C         143.7908  142.8538  160.4371 C.3     1  UNL1        0.0528
     12 C         142.5260  143.6405  160.6139 C.ar    1  UNL1        0.0705
     13 C         141.7313  143.7593  161.8805 C.ar    1  UNL1        0.0635
     14 S         140.5480  144.6389  161.6045 S.2     1  UNL1       -0.0459
     15 C         140.6113  145.0637  160.1673 C.ar    1  UNL1        0.1966
     16 N         139.9191  145.8697  159.1085 N.ar    1  UNL1       -0.1973
     17 C         140.7138  145.7509  157.8419 C.ar    1  UNL1        0.2217
     18 N         141.8972  144.8714  158.1179 N.ar    1  UNL1       -0.1408
     19 N         141.8339  144.4466  159.5551 N.ar    1  UNL1       -0.2087
     20 C         142.6098  139.3246  168.9028 C.3     1  UNL1        0.0437
     21 C         142.4462  140.0934  170.1804 C.3     1  UNL1        0.0768
     22 N         141.7113  141.4010  170.1801 N.3     1  UNL1       -0.2737
     23 C         142.3321  142.7613  170.2996 C.3     1  UNL1        0.0721
     24 C         141.2311  143.7789  170.2536 C.3     1  UNL1        0.0187
     25 C         139.9298  143.0475  170.1056 C.3     1  UNL1        0.0174
     26 C         140.2266  141.5779  170.0602 C.3     1  UNL1        0.0576
     27 C         139.2162  140.4783  169.9196 C.3     1  UNL1        0.0173
@<TRIPOS>BOND
     1    11    12    1
     2    12    13   ar
     3    13     1    1
     4     1     2   ar
     5     2     3   ar
     6     3     4   ar
     7     4     5   ar
     8     5     6   ar
     9     6    20    1
    10    20    21    1
    11    21    22    1
    12    22    23    1
    13    23    24    1
    14    24    25    1
    15    25    26    1
    16    26    27    1
    17     6     7   ar
    18     7     8   ar
    19     8     9   ar
    20     9    10   ar
    21    13    14   ar
    22    14    15   ar
    23    15    16   ar
    24    16    17   ar
    25    17    18   ar
    26    18    19   ar
    27    19    12   ar
    28    10     1   ar
    29    19    15   ar
    30     9     4   ar
    31    26    22    1
@<TRIPOS>MOLECULE
*****
 27 31 0 0 0
SMALL
GASTEIGER

@<TRIPOS>ATOM
      1 C         139.3346  142.7264  161.6742 C.ar    1  UNL1        0.0885
      2 C         137.9196  142.4809  162.1072 C.ar    1  UNL1        0.0197
      3 C         137.6424  141.8232  163.4264 C.ar    1  UNL1        0.0030
      4 C         138.7802  141.4109  164.3127 C.ar    1  UNL1        0.0174
      5 C         138.5030  140.7531  165.6320 C.ar    1  UNL1       -0.0027
      6 C         139.6407  140.3409  166.5183 C.ar    1  UNL1       -0.0207
      7 C         141.0558  140.5863  166.0852 C.ar    1  UNL1       -0.0027
      8 C         141.3330  141.2441  164.7659 C.ar    1  UNL1        0.0188
      9 C         140.1952  141.6564  163.8797 C.ar    1  UNL1        0.0812
     10 N         140.4724  142.3141  162.5604 N.ar    1  UNL1       -0.2448
     11 C         140.2094  145.8386  161.2286 C.3     1  UNL1        0.0528
     12 C         140.0139  144.8147  160.1501 C.ar    1  UNL1        0.0705
     13 C         139.6118  143.3842  160.3548 C.ar    1  UNL1        0.0635
     14 S         139.5357  142.7268  159.0087 S.2     1  UNL1       -0.0459
     15 C         139.8907  143.7511  157.9719 C.ar    1  UNL1        0.1966
     16 N         140.0630  143.9779  156.4992 N.ar    1  UNL1       -0.1973
     17 C         140.4651  145.4084  156.2944 C.ar    1  UNL1        0.2217
     18 N         140.5413  146.0657  157.6406 N.ar    1  UNL1       -0.1408
     19 N         140.1863  145.0415  158.6774 N.ar    1  UNL1       -0.2087
     20 C         139.3635  139.6831  167.8375 C.3     1  UNL1        0.0437
     21 C         139.6092  140.4307  169.1146 C.3     1  UNL1        0.0768
     22 N         140.9353  141.0891  169.3551 N.3     1  UNL1       -0.2737
     23 C         141.2162  142.5605  169.2774 C.3     1  UNL1        0.0721
     24 C         142.6679  142.7725  169.5898 C.3     1  UNL1        0.0187
     25 C         143.2843  141.4320  169.8605 C.3     1  UNL1        0.0174
     26 C         142.2135  140.3916  169.7154 C.3     1  UNL1        0.0576
     27 C         142.3899  138.9133  169.8986 C.3     1  UNL1        0.0173
@<TRIPOS>BOND
     1    11    12    1
     2    12    13   ar
     3    13     1    1
     4     1     2   ar
     5     2     3   ar
     6     3     4   ar
     7     4     5   ar
     8     5     6   ar
     9     6    20    1
    10    20    21    1
    11    21    22    1
    12    22    23    1
    13    23    24    1
    14    24    25    1
    15    25    26    1
    16    26    27    1
    17     6     7   ar
    18     7     8   ar
    19     8     9   ar
    20     9    10   ar
    21    13    14   ar
    22    14    15   ar
    23    15    16   ar
    24    16    17   ar
    25    17    18   ar
    26    18    19   ar
    27    19    12   ar
    28    10     1   ar
    29    19    15   ar
    30     9     4   ar
    31    26    22    1
@<TRIPOS>MOLECULE
*****
 27 31 0 0 0
SMALL
GASTEIGER

@<TRIPOS>ATOM
      1 C         142.3258  138.2740  159.8954 C.ar    1  UNL1        0.0885
      2 C         143.5462  139.0993  160.1770 C.ar    1  UNL1        0.0197
      3 C         143.9798  139.3379  161.5930 C.ar    1  UNL1        0.0030
      4 C         143.1931  138.7511  162.7273 C.ar    1  UNL1        0.0174
      5 C         143.6268  138.9897  164.1433 C.ar    1  UNL1       -0.0027
      6 C         142.8400  138.4029  165.2776 C.ar    1  UNL1       -0.0207
      7 C         141.6195  137.5775  164.9959 C.ar    1  UNL1       -0.0027
      8 C         141.1859  137.3390  163.5799 C.ar    1  UNL1        0.0188
      9 C         141.9727  137.9257  162.4456 C.ar    1  UNL1        0.0812
     10 N         141.5391  137.6872  161.0297 N.ar    1  UNL1       -0.2448
     11 C         139.5589  139.3384  158.5313 C.3     1  UNL1        0.0528
     12 C         140.6204  138.5246  157.8524 C.ar    1  UNL1        0.0705
     13 C         141.8922  138.0353  158.4793 C.ar    1  UNL1        0.0635
     14 S         142.6542  137.2655  157.4417 S.2     1  UNL1       -0.0459
     15 C         141.8534  137.2790  156.1734 C.ar    1  UNL1        0.1966
     16 N         141.8294  136.8116  154.7483 N.ar    1  UNL1       -0.1973
     17 C         140.5576  137.3009  154.1214 C.ar    1  UNL1        0.2217
     18 N         139.7955  138.0707  155.1590 N.ar    1  UNL1       -0.1408
     19 N         140.5964  138.0572  156.4273 N.ar    1  UNL1       -0.2087
     20 C         143.2736  138.6415  166.6936 C.3     1  UNL1        0.0437
     21 C         142.5908  139.6904  167.5205 C.3     1  UNL1        0.0768
     22 N         141.8155  140.7861  166.8510 N.3     1  UNL1       -0.2737
     23 C         142.3926  142.0305  166.2438 C.3     1  UNL1        0.0721
     24 C         141.2608  142.8433  165.6886 C.3     1  UNL1        0.0187
     25 C         139.9842  142.1013  165.9527 C.3     1  UNL1        0.0174
     26 C         140.3270  140.8299  166.6711 C.3     1  UNL1        0.0576
     27 C         139.3525  139.7857  167.1291 C.3     1  UNL1        0.0173
@<TRIPOS>BOND
     1    11    12    1
     2    12    13   ar
     3    13     1    1
     4     1     2   ar
     5     2     3   ar
     6     3     4   ar
     7     4     5   ar
     8     5     6   ar
     9     6    20    1
    10    20    21    1
    11    21    22    1
    12    22    23    1
    13    23    24    1
    14    24    25    1
    15    25    26    1
    16    26    27    1
    17     6     7   ar
    18     7     8   ar
    19     8     9   ar
    20     9    10   ar
    21    13    14   ar
    22    14    15   ar
    23    15    16   ar
    24    16    17   ar
    25    17    18   ar
    26    18    19   ar
    27    19    12   ar
    28    10     1   ar
    29    19    15   ar
    30     9     4   ar
    31    26    22    1
@<TRIPOS>MOLECULE
*****
 27 31 0 0 0
SMALL
GASTEIGER

@<TRIPOS>ATOM
      1 C         139.4014  142.7288  159.5701 C.ar    1  UNL1        0.0885
      2 C         140.0070  141.3565  159.5813 C.ar    1  UNL1        0.0197
      3 C         139.8912  140.4957  160.8042 C.ar    1  UNL1        0.0030
      4 C         139.1699  141.0071  162.0158 C.ar    1  UNL1        0.0174
      5 C         139.0541  140.1462  163.2388 C.ar    1  UNL1       -0.0027
      6 C         138.3328  140.6576  164.4504 C.ar    1  UNL1       -0.0207
      7 C         137.7272  142.0299  164.4392 C.ar    1  UNL1       -0.0027
      8 C         137.8430  142.8908  163.2163 C.ar    1  UNL1        0.0188
      9 C         138.5643  142.3794  162.0046 C.ar    1  UNL1        0.0812
     10 N         138.6801  143.2402  160.7818 N.ar    1  UNL1       -0.2448
     11 C         141.0988  145.5059  159.3329 C.3     1  UNL1        0.0528
     12 C         140.2974  144.8662  158.2382 C.ar    1  UNL1        0.0705
     13 C         139.5172  143.5897  158.3472 C.ar    1  UNL1        0.0635
     14 S         138.8731  143.3253  157.0186 S.2     1  UNL1       -0.0459
     15 C         139.2551  144.4383  156.0884 C.ar    1  UNL1        0.1966
     16 N         139.0932  144.9628  154.6925 N.ar    1  UNL1       -0.1973
     17 C         139.8734  146.2393  154.5835 C.ar    1  UNL1        0.2217
     18 N         140.5175  146.5037  155.9121 N.ar    1  UNL1       -0.1408
     19 N         140.1355  145.3907  156.8422 N.ar    1  UNL1       -0.2087
     20 C         138.2170  139.7967  165.6733 C.3     1  UNL1        0.0437
     21 C         139.4087  139.5900  166.5606 C.3     1  UNL1        0.0768
     22 N         139.6469  140.5082  167.7225 N.3     1  UNL1       -0.2737
     23 C         139.2360  140.2574  169.1432 C.3     1  UNL1        0.0721
     24 C         139.6730  141.4326  169.9665 C.3     1  UNL1        0.0187
     25 C         140.3539  142.4098  169.0546 C.3     1  UNL1        0.0174
     26 C         140.3378  141.8385  167.6678 C.3     1  UNL1        0.0576
     27 C         140.9118  142.4841  166.4416 C.3     1  UNL1        0.0173
@<TRIPOS>BOND
     1    11    12    1
     2    12    13   ar
     3    13     1    1
     4     1     2   ar
     5     2     3   ar
     6     3     4   ar
     7     4     5   ar
     8     5     6   ar
     9     6    20    1
    10    20    21    1
    11    21    22    1
    12    22    23    1
    13    23    24    1
    14    24    25    1
    15    25    26    1
    16    26    27    1
    17     6     7   ar
    18     7     8   ar
    19     8     9   ar
    20     9    10   ar
    21    13    14   ar
    22    14    15   ar
    23    15    16   ar
    24    16    17   ar
    25    17    18   ar
    26    18    19   ar
    27    19    12   ar
    28    10     1   ar
    29    19    15   ar
    30     9     4   ar
    31    26    22    1
