@<TRIPOS>MOLECULE
*****
 32 35 0 0 0
SMALL
GASTEIGER

@<TRIPOS>ATOM
      1 C         139.5018  140.5457  164.8062 C.ar    1  UNL1        0.0827
      2 C         138.6354  139.9044  165.8492 C.ar    1  UNL1        0.0230
      3 C         138.4304  138.4185  165.8439 C.ar    1  UNL1        0.0744
      4 C         139.0918  137.5738  164.7956 C.ar    1  UNL1        0.0230
      5 C         139.9583  138.2151  163.7524 C.ar    1  UNL1        0.0828
      6 N         140.6196  137.3705  162.7040 N.ar    1  UNL1       -0.2425
      7 C         141.4860  138.0118  161.6609 C.ar    1  UNL1        0.1139
      8 C         141.6911  139.4977  161.6663 C.ar    1  UNL1        0.0750
      9 C         141.0297  140.3424  162.7146 C.ar    1  UNL1        0.0197
     10 C         140.1633  139.7011  163.7577 C.ar    1  UNL1        0.0366
     11 N         142.5575  140.1390  160.6231 N.pl3   1  UNL1       -0.2597
     12 C         143.2108  141.4606  160.8997 C.2     1  UNL1        0.0859
     13 C         144.0773  142.1019  159.8566 C.2     1  UNL1        0.0822
     14 N         144.2904  141.4215  158.5368 N.pl3   1  UNL1       -0.2811
     15 C         145.1567  142.0628  157.4937 C.3     1  UNL1        0.1174
     16 C         143.6370  140.0999  158.2602 C.2     1  UNL1        0.0822
     17 C         142.7706  139.4587  159.3034 C.2     1  UNL1        0.0859
     18 C         137.5640  137.7772  166.8871 C.3     1  UNL1        0.4187
     19 F         136.6976  137.1360  167.9302 F       1  UNL1       -0.1659
     20 F         137.6392  136.4739  166.1484 F       1  UNL1       -0.1659
     21 F         137.4888  139.0805  167.6258 F       1  UNL1       -0.1659
     22 C         140.5045  142.6747  165.9069 C.2     1  UNL1        0.0990
     23 N         139.7068  142.0316  164.8115 N.2     1  UNL1       -0.2438
     24 C         141.0972  141.8319  166.9971 C.ar    1  UNL1        0.0252
     25 C         142.3510  141.0489  166.7421 C.ar    1  UNL1        0.0020
     26 C         142.9437  140.2061  167.8322 C.ar    1  UNL1        0.0064
     27 C         142.2827  140.1464  169.1774 C.ar    1  UNL1        0.0753
     28 C         141.0290  140.9295  169.4324 C.ar    1  UNL1        0.2901
     29 C         140.4363  141.7722  168.3423 C.ar    1  UNL1        0.0768
     30 N         140.3680  140.8698  170.7776 N.pl3   1  UNL1        0.0809
     31 O         139.4905  139.7057  171.1311 O.2     1  UNL1        0.0415
     32 O         140.5845  141.9740  171.7694 O.co2   1  UNL1       -0.5760
@<TRIPOS>UNITY_ATOM_ATTR
30 1
charge 1
32 1
charge -1
@<TRIPOS>BOND
     1    22    23    2
     2    23     1    1
     3     1     2   ar
     4     2     3   ar
     5     3    18    1
     6    18    19    1
     7    18    20    1
     8    18    21    1
     9     3     4   ar
    10     4     5   ar
    11     5     6   ar
    12     6     7   ar
    13     7     8   ar
    14     8    11    1
    15    11    12    1
    16    12    13    2
    17    13    14    1
    18    14    15    1
    19    14    16    1
    20    16    17    2
    21     8     9   ar
    22     9    10   ar
    23    22    24    1
    24    24    25   ar
    25    25    26   ar
    26    26    27   ar
    27    27    28   ar
    28    28    30    1
    29    30    31    2
    30    30    32    1
    31    28    29   ar
    32    10     1   ar
    33    29    24   ar
    34    10     5   ar
    35    17    11    1
@<TRIPOS>MOLECULE
*****
 32 35 0 0 0
SMALL
GASTEIGER

@<TRIPOS>ATOM
      1 C         140.3860  142.8229  165.1900 C.ar    1  UNL1        0.0827
      2 C         140.7250  142.3153  166.5602 C.ar    1  UNL1        0.0230
      3 C         142.1400  141.9471  166.8948 C.ar    1  UNL1        0.0744
      4 C         143.2162  142.0865  165.8592 C.ar    1  UNL1        0.0230
      5 C         142.8773  142.5941  164.4890 C.ar    1  UNL1        0.0828
      6 N         143.9534  142.7335  163.4534 N.ar    1  UNL1       -0.2425
      7 C         143.6145  143.2411  162.0832 C.ar    1  UNL1        0.1139
      8 C         142.1994  143.6093  161.7486 C.ar    1  UNL1        0.0750
      9 C         141.1232  143.4699  162.7842 C.ar    1  UNL1        0.0197
     10 C         141.4622  142.9623  164.1544 C.ar    1  UNL1        0.0366
     11 N         141.8604  144.1169  160.3784 N.pl3   1  UNL1       -0.2597
     12 C         140.7157  145.0683  160.1929 C.2     1  UNL1        0.0859
     13 C         140.3768  145.5759  158.8226 C.2     1  UNL1        0.0822
     14 N         141.1827  145.1321  157.6379 N.pl3   1  UNL1       -0.2811
     15 C         140.8438  145.6396  156.2677 C.3     1  UNL1        0.1174
     16 C         142.3274  144.1806  157.8234 C.2     1  UNL1        0.0822
     17 C         142.6663  143.6731  159.1936 C.2     1  UNL1        0.0859
     18 C         142.4790  141.4395  168.2651 C.3     1  UNL1        0.4187
     19 F         142.8178  140.9319  169.6353 F       1  UNL1       -0.1659
     20 F         143.6332  142.3950  168.3336 F       1  UNL1       -0.1659
     21 F         141.3247  140.4841  168.1966 F       1  UNL1       -0.1659
     22 C         137.9690  142.1176  164.5492 C.2     1  UNL1        0.0990
     23 N         138.9709  143.1911  164.8554 N.2     1  UNL1       -0.2438
     24 C         138.3822  140.6759  164.5775 C.ar    1  UNL1        0.0252
     25 C         138.2358  139.8785  165.8395 C.ar    1  UNL1        0.0020
     26 C         138.6489  138.4368  165.8679 C.ar    1  UNL1        0.0064
     27 C         139.2085  137.7925  164.6343 C.ar    1  UNL1        0.0753
     28 C         139.3549  138.5900  163.3723 C.ar    1  UNL1        0.2901
     29 C         138.9417  140.0316  163.3439 C.ar    1  UNL1        0.0768
     30 N         139.9144  137.9457  162.1387 N.pl3   1  UNL1        0.0809
     31 O         141.2394  137.2447  162.1938 O.2     1  UNL1        0.0415
     32 O         139.1490  138.0023  160.8500 O.co2   1  UNL1       -0.5760
@<TRIPOS>UNITY_ATOM_ATTR
30 1
charge 1
32 1
charge -1
@<TRIPOS>BOND
     1    22    23    2
     2    23     1    1
     3     1     2   ar
     4     2     3   ar
     5     3    18    1
     6    18    19    1
     7    18    20    1
     8    18    21    1
     9     3     4   ar
    10     4     5   ar
    11     5     6   ar
    12     6     7   ar
    13     7     8   ar
    14     8    11    1
    15    11    12    1
    16    12    13    2
    17    13    14    1
    18    14    15    1
    19    14    16    1
    20    16    17    2
    21     8     9   ar
    22     9    10   ar
    23    22    24    1
    24    24    25   ar
    25    25    26   ar
    26    26    27   ar
    27    27    28   ar
    28    28    30    1
    29    30    31    2
    30    30    32    1
    31    28    29   ar
    32    10     1   ar
    33    29    24   ar
    34    10     5   ar
    35    17    11    1
@<TRIPOS>MOLECULE
*****
 32 35 0 0 0
SMALL
GASTEIGER

@<TRIPOS>ATOM
      1 C         141.4239  140.0997  164.5326 C.ar    1  UNL1        0.0827
      2 C         140.4175  139.5908  165.5216 C.ar    1  UNL1        0.0230
      3 C         139.1868  138.8804  165.0412 C.ar    1  UNL1        0.0744
      4 C         138.9625  138.6790  163.5718 C.ar    1  UNL1        0.0230
      5 C         139.9690  139.1879  162.5828 C.ar    1  UNL1        0.0828
      6 N         139.7447  138.9865  161.1134 N.ar    1  UNL1       -0.2425
      7 C         140.7511  139.4954  160.1244 C.ar    1  UNL1        0.1139
      8 C         141.9818  140.2057  160.6049 C.ar    1  UNL1        0.0750
      9 C         142.2061  140.4072  162.0742 C.ar    1  UNL1        0.0197
     10 C         141.1996  139.8983  163.0632 C.ar    1  UNL1        0.0366
     11 N         142.9883  140.7147  159.6158 N.pl3   1  UNL1       -0.2597
     12 C         143.6507  142.0424  159.8356 C.2     1  UNL1        0.0859
     13 C         144.6571  142.5513  158.8466 C.2     1  UNL1        0.0822
     14 N         145.0011  141.7325  157.6378 N.pl3   1  UNL1       -0.2811
     15 C         146.0075  142.2413  156.6488 C.3     1  UNL1        0.1174
     16 C         144.3386  140.4047  157.4180 C.2     1  UNL1        0.0822
     17 C         143.3322  139.8958  158.4070 C.2     1  UNL1        0.0859
     18 C         138.1803  138.3715  166.0302 C.3     1  UNL1        0.4187
     19 F         137.1739  137.8626  167.0192 F       1  UNL1       -0.1659
     20 F         138.5713  136.9610  165.7024 F       1  UNL1       -0.1659
     21 F         137.7893  139.7820  166.3580 F       1  UNL1       -0.1659
     22 C         142.6302  142.2953  165.2209 C.2     1  UNL1        0.0990
     23 N         142.6546  140.8101  165.0130 N.2     1  UNL1       -0.2438
     24 C         141.3751  143.0704  164.9484 C.ar    1  UNL1        0.0252
     25 C         140.3264  143.1980  166.0132 C.ar    1  UNL1        0.0020
     26 C         139.0714  143.9730  165.7408 C.ar    1  UNL1        0.0064
     27 C         138.8651  144.6203  164.4035 C.ar    1  UNL1        0.0753
     28 C         139.9138  144.4926  163.3387 C.ar    1  UNL1        0.2901
     29 C         141.1689  143.7177  163.6111 C.ar    1  UNL1        0.0768
     30 N         139.7075  145.1400  162.0013 N.pl3   1  UNL1        0.0809
     31 O         139.9082  146.6183  161.8447 O.2     1  UNL1        0.0415
     32 O         139.3004  144.3092  160.8207 O.co2   1  UNL1       -0.5760
@<TRIPOS>UNITY_ATOM_ATTR
30 1
charge 1
32 1
charge -1
@<TRIPOS>BOND
     1    22    23    2
     2    23     1    1
     3     1     2   ar
     4     2     3   ar
     5     3    18    1
     6    18    19    1
     7    18    20    1
     8    18    21    1
     9     3     4   ar
    10     4     5   ar
    11     5     6   ar
    12     6     7   ar
    13     7     8   ar
    14     8    11    1
    15    11    12    1
    16    12    13    2
    17    13    14    1
    18    14    15    1
    19    14    16    1
    20    16    17    2
    21     8     9   ar
    22     9    10   ar
    23    22    24    1
    24    24    25   ar
    25    25    26   ar
    26    26    27   ar
    27    27    28   ar
    28    28    30    1
    29    30    31    2
    30    30    32    1
    31    28    29   ar
    32    10     1   ar
    33    29    24   ar
    34    10     5   ar
    35    17    11    1
@<TRIPOS>MOLECULE
*****
 32 35 0 0 0
SMALL
GASTEIGER

@<TRIPOS>ATOM
      1 C         138.3089  141.8236  163.9222 C.ar    1  UNL1        0.0827
      2 C         138.1438  140.7431  164.9495 C.ar    1  UNL1        0.0230
      3 C         138.4810  139.3227  164.6048 C.ar    1  UNL1        0.0744
      4 C         138.9833  138.9828  163.2330 C.ar    1  UNL1        0.0230
      5 C         139.1485  140.0633  162.2056 C.ar    1  UNL1        0.0828
      6 N         139.6508  139.7234  160.8338 N.ar    1  UNL1       -0.2425
      7 C         139.8159  140.8038  159.8065 C.ar    1  UNL1        0.1139
      8 C         139.4787  142.2242  160.1512 C.ar    1  UNL1        0.0750
      9 C         138.9764  142.5642  161.5230 C.ar    1  UNL1        0.0197
     10 C         138.8113  141.4837  162.5503 C.ar    1  UNL1        0.0366
     11 N         139.6439  143.3047  159.1238 N.pl3   1  UNL1       -0.2597
     12 C         139.1741  143.0803  157.7171 C.2     1  UNL1        0.0859
     13 C         139.3392  144.1608  156.6898 C.2     1  UNL1        0.0822
     14 N         139.9742  145.4657  157.0693 N.pl3   1  UNL1       -0.2811
     15 C         140.1394  146.5462  156.0420 C.3     1  UNL1        0.1174
     16 C         140.4440  145.6901  158.4761 C.2     1  UNL1        0.0822
     17 C         140.2788  144.6097  159.5033 C.2     1  UNL1        0.0859
     18 C         138.3158  138.2422  165.6322 C.3     1  UNL1        0.4187
     19 F         138.1507  137.1618  166.6595 F       1  UNL1       -0.1659
     20 F         139.0656  137.2886  164.7499 F       1  UNL1       -0.1659
     21 F         137.5661  139.1958  166.5145 F       1  UNL1       -0.1659
     22 C         139.0181  144.1407  164.8593 C.2     1  UNL1        0.0990
     23 N         137.9718  143.2440  164.2669 N.2     1  UNL1       -0.2438
     24 C         140.4018  143.6170  165.1071 C.ar    1  UNL1        0.0252
     25 C         140.6932  142.8258  166.3477 C.ar    1  UNL1        0.0020
     26 C         142.0767  142.3021  166.5956 C.ar    1  UNL1        0.0064
     27 C         143.1689  142.5696  165.6028 C.ar    1  UNL1        0.0753
     28 C         142.8775  143.3607  164.3622 C.ar    1  UNL1        0.2901
     29 C         141.4939  143.8844  164.1144 C.ar    1  UNL1        0.0768
     30 N         143.9697  143.6282  163.3694 N.pl3   1  UNL1        0.0809
     31 O         144.0816  144.9770  162.7227 O.2     1  UNL1        0.0415
     32 O         144.9499  142.5469  163.0233 O.co2   1  UNL1       -0.5760
@<TRIPOS>UNITY_ATOM_ATTR
30 1
charge 1
32 1
charge -1
@<TRIPOS>BOND
     1    22    23    2
     2    23     1    1
     3     1     2   ar
     4     2     3   ar
     5     3    18    1
     6    18    19    1
     7    18    20    1
     8    18    21    1
     9     3     4   ar
    10     4     5   ar
    11     5     6   ar
    12     6     7   ar
    13     7     8   ar
    14     8    11    1
    15    11    12    1
    16    12    13    2
    17    13    14    1
    18    14    15    1
    19    14    16    1
    20    16    17    2
    21     8     9   ar
    22     9    10   ar
    23    22    24    1
    24    24    25   ar
    25    25    26   ar
    26    26    27   ar
    27    27    28   ar
    28    28    30    1
    29    30    31    2
    30    30    32    1
    31    28    29   ar
    32    10     1   ar
    33    29    24   ar
    34    10     5   ar
    35    17    11    1
@<TRIPOS>MOLECULE
*****
 32 35 0 0 0
SMALL
GASTEIGER

@<TRIPOS>ATOM
      1 C         141.8463  142.0567  166.1017 C.ar    1  UNL1        0.0827
      2 C         141.4666  142.4516  167.4980 C.ar    1  UNL1        0.0230
      3 C         140.5599  141.5713  168.3062 C.ar    1  UNL1        0.0744
      4 C         140.0330  140.2960  167.7180 C.ar    1  UNL1        0.0230
      5 C         140.4127  139.9010  166.3216 C.ar    1  UNL1        0.0828
      6 N         139.8858  138.6257  165.7334 N.ar    1  UNL1       -0.2425
      7 C         140.2655  138.2308  164.3371 C.ar    1  UNL1        0.1139
      8 C         141.1721  139.1111  163.5289 C.ar    1  UNL1        0.0750
      9 C         141.6990  140.3864  164.1171 C.ar    1  UNL1        0.0197
     10 C         141.3193  140.7813  165.5134 C.ar    1  UNL1        0.0366
     11 N         141.5518  138.7161  162.1325 N.pl3   1  UNL1       -0.2597
     12 C         142.8463  138.0013  161.8810 C.2     1  UNL1        0.0859
     13 C         143.2260  137.6062  160.4846 C.2     1  UNL1        0.0822
     14 N         142.3111  137.9261  159.3398 N.pl3   1  UNL1       -0.2811
     15 C         142.6908  137.5311  157.9434 C.3     1  UNL1        0.1174
     16 C         141.0166  138.6410  159.5913 C.2     1  UNL1        0.0822
     17 C         140.6370  139.0359  160.9876 C.2     1  UNL1        0.0859
     18 C         140.1803  141.9663  169.7026 C.3     1  UNL1        0.4187
     19 F         139.8006  142.3613  171.0989 F       1  UNL1       -0.1659
     20 F         138.9913  141.0541  169.6374 F       1  UNL1       -0.1659
     21 F         141.3692  142.8785  169.7678 F       1  UNL1       -0.1659
     22 C         142.1781  143.8511  164.2524 C.2     1  UNL1        0.0990
     23 N         142.7529  142.9370  165.2935 N.2     1  UNL1       -0.2438
     24 C         140.6966  143.8849  164.0194 C.ar    1  UNL1        0.0252
     25 C         139.8081  144.6539  164.9516 C.ar    1  UNL1        0.0020
     26 C         138.3268  144.6878  164.7186 C.ar    1  UNL1        0.0064
     27 C         137.7339  143.9525  163.5534 C.ar    1  UNL1        0.0753
     28 C         138.6224  143.1835  162.6211 C.ar    1  UNL1        0.2901
     29 C         140.1038  143.1497  162.8541 C.ar    1  UNL1        0.0768
     30 N         138.0294  142.4483  161.4558 N.pl3   1  UNL1        0.0809
     31 O         137.3026  141.1548  161.6763 O.2     1  UNL1        0.0415
     32 O         138.1632  143.0065  160.0700 O.co2   1  UNL1       -0.5760
@<TRIPOS>UNITY_ATOM_ATTR
30 1
charge 1
32 1
charge -1
@<TRIPOS>BOND
     1    22    23    2
     2    23     1    1
     3     1     2   ar
     4     2     3   ar
     5     3    18    1
     6    18    19    1
     7    18    20    1
     8    18    21    1
     9     3     4   ar
    10     4     5   ar
    11     5     6   ar
    12     6     7   ar
    13     7     8   ar
    14     8    11    1
    15    11    12    1
    16    12    13    2
    17    13    14    1
    18    14    15    1
    19    14    16    1
    20    16    17    2
    21     8     9   ar
    22     9    10   ar
    23    22    24    1
    24    24    25   ar
    25    25    26   ar
    26    26    27   ar
    27    27    28   ar
    28    28    30    1
    29    30    31    2
    30    30    32    1
    31    28    29   ar
    32    10     1   ar
    33    29    24   ar
    34    10     5   ar
    35    17    11    1
@<TRIPOS>MOLECULE
*****
 32 35 0 0 0
SMALL
GASTEIGER

@<TRIPOS>ATOM
      1 C         142.1429  138.2649  163.1699 C.ar    1  UNL1        0.0827
      2 C         142.2245  137.9994  164.6439 C.ar    1  UNL1        0.0230
      3 C         143.1381  138.8209  165.5045 C.ar    1  UNL1        0.0744
      4 C         143.9699  139.9079  164.8911 C.ar    1  UNL1        0.0230
      5 C         143.8884  140.1735  163.4170 C.ar    1  UNL1        0.0828
      6 N         144.7202  141.2605  162.8036 N.ar    1  UNL1       -0.2425
      7 C         144.6386  141.5260  161.3296 C.ar    1  UNL1        0.1139
      8 C         143.7251  140.7045  160.4690 C.ar    1  UNL1        0.0750
      9 C         142.8932  139.6175  161.0824 C.ar    1  UNL1        0.0197
     10 C         142.9748  139.3520  162.5564 C.ar    1  UNL1        0.0366
     11 N         143.6435  140.9701  158.9949 N.pl3   1  UNL1       -0.2597
     12 C         144.4719  142.0603  158.3823 C.2     1  UNL1        0.0859
     13 C         144.3903  142.3258  156.9082 C.2     1  UNL1        0.0822
     14 N         143.4803  141.5012  156.0468 N.pl3   1  UNL1       -0.2811
     15 C         143.3987  141.7667  154.5728 C.3     1  UNL1        0.1174
     16 C         142.6520  140.4110  156.6595 C.2     1  UNL1        0.0822
     17 C         142.7336  140.1455  158.1335 C.2     1  UNL1        0.0859
     18 C         143.2196  138.5553  166.9786 C.3     1  UNL1        0.4187
     19 F         143.3012  138.2898  168.4527 F       1  UNL1       -0.1659
     20 F         144.4133  137.6751  166.7541 F       1  UNL1       -0.1659
     21 F         142.0260  139.4355  167.2032 F       1  UNL1       -0.1659
     22 C         139.7432  137.6164  162.4146 C.2     1  UNL1        0.0990
     23 N         141.2294  137.4434  162.3093 N.2     1  UNL1       -0.2438
     24 C         139.1704  138.6109  163.3805 C.ar    1  UNL1        0.0252
     25 C         138.9226  140.0242  162.9432 C.ar    1  UNL1        0.0020
     26 C         138.3498  141.0186  163.9091 C.ar    1  UNL1        0.0064
     27 C         138.0248  140.5998  165.3122 C.ar    1  UNL1        0.0753
     28 C         138.2726  139.1865  165.7495 C.ar    1  UNL1        0.2901
     29 C         138.8454  138.1920  164.7837 C.ar    1  UNL1        0.0768
     30 N         137.9475  138.7677  167.1528 N.pl3   1  UNL1        0.0809
     31 O         136.8751  137.7490  167.4021 O.2     1  UNL1        0.0415
     32 O         138.6949  139.3676  168.3067 O.co2   1  UNL1       -0.5760
@<TRIPOS>UNITY_ATOM_ATTR
30 1
charge 1
32 1
charge -1
@<TRIPOS>BOND
     1    22    23    2
     2    23     1    1
     3     1     2   ar
     4     2     3   ar
     5     3    18    1
     6    18    19    1
     7    18    20    1
     8    18    21    1
     9     3     4   ar
    10     4     5   ar
    11     5     6   ar
    12     6     7   ar
    13     7     8   ar
    14     8    11    1
    15    11    12    1
    16    12    13    2
    17    13    14    1
    18    14    15    1
    19    14    16    1
    20    16    17    2
    21     8     9   ar
    22     9    10   ar
    23    22    24    1
    24    24    25   ar
    25    25    26   ar
    26    26    27   ar
    27    27    28   ar
    28    28    30    1
    29    30    31    2
    30    30    32    1
    31    28    29   ar
    32    10     1   ar
    33    29    24   ar
    34    10     5   ar
    35    17    11    1
@<TRIPOS>MOLECULE
*****
 32 35 0 0 0
SMALL
GASTEIGER

@<TRIPOS>ATOM
      1 C         138.7037  139.9908  164.1287 C.ar    1  UNL1        0.0827
      2 C         138.6099  140.1904  165.6123 C.ar    1  UNL1        0.0230
      3 C         139.7433  139.7675  166.4992 C.ar    1  UNL1        0.0744
      4 C         140.9706  139.1451  165.9024 C.ar    1  UNL1        0.0230
      5 C         141.0645  138.9455  164.4186 C.ar    1  UNL1        0.0828
      6 N         142.2919  138.3230  163.8218 N.ar    1  UNL1       -0.2425
      7 C         142.3857  138.1235  162.3382 C.ar    1  UNL1        0.1139
      8 C         141.2523  138.5463  161.4513 C.ar    1  UNL1        0.0750
      9 C         140.0250  139.1688  162.0481 C.ar    1  UNL1        0.0197
     10 C         139.9311  139.3683  163.5318 C.ar    1  UNL1        0.0366
     11 N         141.3462  138.3467  159.9676 N.pl3   1  UNL1       -0.2597
     12 C         140.1452  138.5853  159.1012 C.2     1  UNL1        0.0859
     13 C         140.2392  138.3857  157.6175 C.2     1  UNL1        0.0822
     14 N         141.5341  137.9475  157.0002 N.pl3   1  UNL1       -0.2811
     15 C         141.6281  137.7479  155.5165 C.3     1  UNL1        0.1174
     16 C         142.7352  137.7089  157.8666 C.2     1  UNL1        0.0822
     17 C         142.6412  137.9086  159.3503 C.2     1  UNL1        0.0859
     18 C         139.6494  139.9671  167.9829 C.3     1  UNL1        0.4187
     19 F         139.5555  140.1667  169.4666 F       1  UNL1       -0.1659
     20 F         138.2977  139.3167  167.9849 F       1  UNL1       -0.1659
     21 F         141.0010  140.6175  167.9809 F       1  UNL1       -0.1659
     22 C         137.4548  141.8432  162.8026 C.2     1  UNL1        0.0990
     23 N         137.5703  140.4137  163.2418 N.2     1  UNL1       -0.2438
     24 C         138.4727  142.8500  163.2502 C.ar    1  UNL1        0.0252
     25 C         138.2158  143.6850  164.4696 C.ar    1  UNL1        0.0020
     26 C         139.2336  144.6917  164.9172 C.ar    1  UNL1        0.0064
     27 C         140.5083  144.8635  164.1456 C.ar    1  UNL1        0.0753
     28 C         140.7652  144.0285  162.9262 C.ar    1  UNL1        0.2901
     29 C         139.7474  143.0218  162.4785 C.ar    1  UNL1        0.0768
     30 N         142.0400  144.2003  162.1545 N.pl3   1  UNL1        0.0809
     31 O         141.9973  144.6712  160.7310 O.2     1  UNL1        0.0415
     32 O         143.3574  143.9012  162.8063 O.co2   1  UNL1       -0.5760
@<TRIPOS>UNITY_ATOM_ATTR
30 1
charge 1
32 1
charge -1
@<TRIPOS>BOND
     1    22    23    2
     2    23     1    1
     3     1     2   ar
     4     2     3   ar
     5     3    18    1
     6    18    19    1
     7    18    20    1
     8    18    21    1
     9     3     4   ar
    10     4     5   ar
    11     5     6   ar
    12     6     7   ar
    13     7     8   ar
    14     8    11    1
    15    11    12    1
    16    12    13    2
    17    13    14    1
    18    14    15    1
    19    14    16    1
    20    16    17    2
    21     8     9   ar
    22     9    10   ar
    23    22    24    1
    24    24    25   ar
    25    25    26   ar
    26    26    27   ar
    27    27    28   ar
    28    28    30    1
    29    30    31    2
    30    30    32    1
    31    28    29   ar
    32    10     1   ar
    33    29    24   ar
    34    10     5   ar
    35    17    11    1
@<TRIPOS>MOLECULE
*****
 32 35 0 0 0
SMALL
GASTEIGER

@<TRIPOS>ATOM
      1 C         138.3148  141.7036  164.1412 C.ar    1  UNL1        0.0827
      2 C         138.1304  140.6174  165.1591 C.ar    1  UNL1        0.0230
      3 C         138.4343  139.1932  164.7995 C.ar    1  UNL1        0.0744
      4 C         138.9226  138.8552  163.4221 C.ar    1  UNL1        0.0230
      5 C         139.1070  139.9414  162.4042 C.ar    1  UNL1        0.0828
      6 N         139.5953  139.6034  161.0268 N.ar    1  UNL1       -0.2425
      7 C         139.7797  140.6896  160.0089 C.ar    1  UNL1        0.1139
      8 C         139.4758  142.1138  160.3684 C.ar    1  UNL1        0.0750
      9 C         138.9875  142.4518  161.7458 C.ar    1  UNL1        0.0197
     10 C         138.8031  141.3656  162.7637 C.ar    1  UNL1        0.0366
     11 N         139.6602  143.2000  159.3505 N.pl3   1  UNL1       -0.2597
     12 C         140.2275  144.5259  159.7629 C.2     1  UNL1        0.0859
     13 C         140.4120  145.6122  158.7449 C.2     1  UNL1        0.0822
     14 N         140.0290  145.3724  157.3146 N.pl3   1  UNL1       -0.2811
     15 C         140.2134  146.4586  156.2966 C.3     1  UNL1        0.1174
     16 C         139.4617  144.0464  156.9022 C.2     1  UNL1        0.0822
     17 C         139.2773  142.9603  157.9201 C.2     1  UNL1        0.0859
     18 C         138.2499  138.1069  165.8175 C.3     1  UNL1        0.4187
     19 F         138.0655  137.0207  166.8354 F       1  UNL1       -0.1659
     20 F         137.4729  139.0520  166.6852 F       1  UNL1       -0.1659
     21 F         139.0269  137.1619  164.9497 F       1  UNL1       -0.1659
     22 C         139.0477  143.9651  165.1891 C.2     1  UNL1        0.0990
     23 N         138.0110  143.1278  164.5007 N.2     1  UNL1       -0.2438
     24 C         140.3885  143.3783  165.5180 C.ar    1  UNL1        0.0252
     25 C         141.4940  143.4192  164.5050 C.ar    1  UNL1        0.0020
     26 C         142.8347  142.8324  164.8339 C.ar    1  UNL1        0.0064
     27 C         143.0698  142.2046  166.1757 C.ar    1  UNL1        0.0753
     28 C         141.9643  142.1637  167.1887 C.ar    1  UNL1        0.2901
     29 C         140.6236  142.7505  166.8599 C.ar    1  UNL1        0.0768
     30 N         142.1995  141.5358  168.5306 N.pl3   1  UNL1        0.0809
     31 O         141.9160  142.3126  169.7821 O.2     1  UNL1        0.0415
     32 O         142.7182  140.1313  168.6209 O.co2   1  UNL1       -0.5760
@<TRIPOS>UNITY_ATOM_ATTR
30 1
charge 1
32 1
charge -1
@<TRIPOS>BOND
     1    22    23    2
     2    23     1    1
     3     1     2   ar
     4     2     3   ar
     5     3    18    1
     6    18    19    1
     7    18    20    1
     8    18    21    1
     9     3     4   ar
    10     4     5   ar
    11     5     6   ar
    12     6     7   ar
    13     7     8   ar
    14     8    11    1
    15    11    12    1
    16    12    13    2
    17    13    14    1
    18    14    15    1
    19    14    16    1
    20    16    17    2
    21     8     9   ar
    22     9    10   ar
    23    22    24    1
    24    24    25   ar
    25    25    26   ar
    26    26    27   ar
    27    27    28   ar
    28    28    30    1
    29    30    31    2
    30    30    32    1
    31    28    29   ar
    32    10     1   ar
    33    29    24   ar
    34    10     5   ar
    35    17    11    1
@<TRIPOS>MOLECULE
*****
 32 35 0 0 0
SMALL
GASTEIGER

@<TRIPOS>ATOM
      1 C         143.0191  142.5534  165.6624 C.ar    1  UNL1        0.0827
      2 C         143.1192  142.2867  167.1351 C.ar    1  UNL1        0.0230
      3 C         141.9029  142.4107  168.0041 C.ar    1  UNL1        0.0744
      4 C         140.5865  142.8013  167.4005 C.ar    1  UNL1        0.0230
      5 C         140.4863  143.0680  165.9277 C.ar    1  UNL1        0.0828
      6 N         139.1699  143.4586  165.3241 N.ar    1  UNL1       -0.2425
      7 C         139.0698  143.7253  163.8514 C.ar    1  UNL1        0.1139
      8 C         140.2861  143.6013  162.9824 C.ar    1  UNL1        0.0750
      9 C         141.6025  143.2107  163.5860 C.ar    1  UNL1        0.0197
     10 C         141.7026  142.9440  165.0587 C.ar    1  UNL1        0.0366
     11 N         140.1859  143.8680  161.5096 N.pl3   1  UNL1       -0.2597
     12 C         139.4398  142.9147  160.6239 C.2     1  UNL1        0.0859
     13 C         139.3397  143.1814  159.1511 C.2     1  UNL1        0.0822
     14 N         139.9856  144.4014  158.5642 N.pl3   1  UNL1       -0.2811
     15 C         139.8854  144.6681  157.0916 C.3     1  UNL1        0.1174
     16 C         140.7316  145.3547  159.4501 C.2     1  UNL1        0.0822
     17 C         140.8318  145.0880  160.9227 C.2     1  UNL1        0.0859
     18 C         142.0031  142.1440  169.4769 C.3     1  UNL1        0.4187
     19 F         142.1032  141.8774  170.9496 F       1  UNL1       -0.1659
     20 F         142.3785  140.7197  169.1935 F       1  UNL1       -0.1659
     21 F         141.6276  143.5683  169.7603 F       1  UNL1       -0.1659
     22 C         144.5347  141.1319  164.1029 C.2     1  UNL1        0.0990
     23 N         144.2354  142.4294  164.7933 N.2     1  UNL1       -0.2438
     24 C         143.6177  139.9583  164.2814 C.ar    1  UNL1        0.0252
     25 C         143.6836  139.1392  165.5363 C.ar    1  UNL1        0.0020
     26 C         142.7667  137.9656  165.7149 C.ar    1  UNL1        0.0064
     27 C         141.7839  137.6111  164.6386 C.ar    1  UNL1        0.0753
     28 C         141.7181  138.4302  163.3837 C.ar    1  UNL1        0.2901
     29 C         142.6350  139.6038  163.2051 C.ar    1  UNL1        0.0768
     30 N         140.7352  138.0756  162.3074 N.pl3   1  UNL1        0.0809
     31 O         139.3624  137.5950  162.6740 O.2     1  UNL1        0.0415
     32 O         141.1252  138.2017  160.8645 O.co2   1  UNL1       -0.5760
@<TRIPOS>UNITY_ATOM_ATTR
30 1
charge 1
32 1
charge -1
@<TRIPOS>BOND
     1    22    23    2
     2    23     1    1
     3     1     2   ar
     4     2     3   ar
     5     3    18    1
     6    18    19    1
     7    18    20    1
     8    18    21    1
     9     3     4   ar
    10     4     5   ar
    11     5     6   ar
    12     6     7   ar
    13     7     8   ar
    14     8    11    1
    15    11    12    1
    16    12    13    2
    17    13    14    1
    18    14    15    1
    19    14    16    1
    20    16    17    2
    21     8     9   ar
    22     9    10   ar
    23    22    24    1
    24    24    25   ar
    25    25    26   ar
    26    26    27   ar
    27    27    28   ar
    28    28    30    1
    29    30    31    2
    30    30    32    1
    31    28    29   ar
    32    10     1   ar
    33    29    24   ar
    34    10     5   ar
    35    17    11    1
