@<TRIPOS>MOLECULE
*****
 23 25 0 0 0
SMALL
GASTEIGER

@<TRIPOS>ATOM
      1 C         139.8835  138.8366  165.0534 C.ar    1  UNL1        0.0487
      2 C         138.5616  138.2961  165.5122 C.ar    1  UNL1        0.0022
      3 C         138.0266  138.6697  166.8628 C.ar    1  UNL1       -0.0001
      4 C         138.8135  139.5837  167.7546 C.ar    1  UNL1       -0.0000
      5 C         140.1353  140.1242  167.2959 C.ar    1  UNL1       -0.0001
      6 C         140.6703  139.7507  165.9453 C.ar    1  UNL1        0.0022
      7 C         141.6033  138.1199  164.5563 C.3     1  UNL1        0.0910
      8 C         140.4186  138.4630  163.7028 C.3     1  UNL1        0.2880
      9 N         139.0479  138.9360  163.3183 N.2     1  UNL1       -0.0454
     10 C         138.6238  138.9162  161.8797 C.2     1  UNL1        0.2946
     11 N         137.2532  139.3891  161.4952 N.pl3   1  UNL1       -0.2500
     12 C         139.5703  138.4235  160.8254 C.3     1  UNL1        0.1486
     13 C         140.9410  137.9505  161.2099 C.3     1  UNL1        0.1593
     14 O         141.3651  137.9703  162.6485 O.3     1  UNL1       -0.3152
     15 H         136.6320  139.7125  162.1871 H       1  UNL1        0.2881
     16 H         136.9749  139.3761  160.5509 H       1  UNL1        0.2881
     17 C         140.9222  141.0383  168.1877 C.ar    1  UNL1        0.0008
     18 C         142.3348  140.6937  168.5560 C.ar    1  UNL1        0.0001
     19 C         143.1217  141.6077  169.4478 C.ar    1  UNL1        0.0009
     20 C         142.4959  142.8664  169.9714 C.ar    1  UNL1        0.0114
     21 C         141.0833  143.2110  169.6031 C.ar    1  UNL1        0.0577
     22 CL        140.4574  144.4697  170.1267 Cl      1  UNL1       -0.0822
     23 C         140.2964  142.2969  168.7113 C.ar    1  UNL1        0.0114
@<TRIPOS>BOND
     1     7     8    1
     2     8     1    1
     3     1     2   ar
     4     2     3   ar
     5     3     4   ar
     6     4     5   ar
     7     5    17    1
     8    17    18   ar
     9    18    19   ar
    10    19    20   ar
    11    20    21   ar
    12    21    22    1
    13    21    23   ar
    14     5     6   ar
    15     8     9    1
    16     9    10    2
    17    10    11    1
    18    10    12    1
    19    12    13    1
    20    13    14    1
    21    14     8    1
    22     6     1   ar
    23    23    17   ar
    24    11    15    1
    25    11    16    1
@<TRIPOS>MOLECULE
*****
 23 25 0 0 0
SMALL
GASTEIGER

@<TRIPOS>ATOM
      1 C         140.1506  138.5811  164.7741 C.ar    1  UNL1        0.0487
      2 C         138.7747  138.0998  165.1276 C.ar    1  UNL1        0.0022
      3 C         138.1409  138.5232  166.4195 C.ar    1  UNL1       -0.0001
      4 C         138.8832  139.4279  167.3579 C.ar    1  UNL1       -0.0000
      5 C         140.2591  139.9093  167.0044 C.ar    1  UNL1       -0.0001
      6 C         140.8929  139.4858  165.7125 C.ar    1  UNL1        0.0022
      7 C         139.3759  137.7009  163.2432 C.3     1  UNL1        0.0910
      8 C         140.7845  138.1577  163.4822 C.3     1  UNL1        0.2880
      9 N         141.9730  138.7615  164.1698 N.2     1  UNL1       -0.0454
     10 C         143.3061  138.7833  163.4826 C.2     1  UNL1        0.2946
     11 N         144.4946  139.3871  164.1703 N.pl3   1  UNL1       -0.2500
     12 C         143.4507  138.2012  162.1077 C.3     1  UNL1        0.1486
     13 C         142.2622  137.5974  161.4201 C.3     1  UNL1        0.1593
     14 O         140.9291  137.5756  162.1073 O.3     1  UNL1       -0.3152
     15 H         144.3997  139.7691  165.0727 H       1  UNL1        0.2881
     16 H         145.3696  139.4014  163.7192 H       1  UNL1        0.2881
     17 C         141.0013  140.8140  167.9428 C.ar    1  UNL1        0.0008
     18 C         142.4010  140.4746  168.3618 C.ar    1  UNL1        0.0001
     19 C         143.1432  141.3793  169.3002 C.ar    1  UNL1        0.0009
     20 C         142.4858  142.6235  169.8195 C.ar    1  UNL1        0.0114
     21 C         141.0861  142.9629  169.4005 C.ar    1  UNL1        0.0577
     22 CL        140.4286  144.2072  169.9198 Cl      1  UNL1       -0.0822
     23 C         140.3439  142.0582  168.4621 C.ar    1  UNL1        0.0114
@<TRIPOS>BOND
     1     7     8    1
     2     8     1    1
     3     1     2   ar
     4     2     3   ar
     5     3     4   ar
     6     4     5   ar
     7     5    17    1
     8    17    18   ar
     9    18    19   ar
    10    19    20   ar
    11    20    21   ar
    12    21    22    1
    13    21    23   ar
    14     5     6   ar
    15     8     9    1
    16     9    10    2
    17    10    11    1
    18    10    12    1
    19    12    13    1
    20    13    14    1
    21    14     8    1
    22     6     1   ar
    23    23    17   ar
    24    11    15    1
    25    11    16    1
@<TRIPOS>MOLECULE
*****
 23 25 0 0 0
SMALL
GASTEIGER

@<TRIPOS>ATOM
      1 C         140.6093  140.2027  167.9944 C.ar    1  UNL1        0.0487
      2 C         139.3454  139.9790  168.7707 C.ar    1  UNL1        0.0022
      3 C         138.1545  139.3588  168.1021 C.ar    1  UNL1       -0.0001
      4 C         138.2274  138.9624  166.6573 C.ar    1  UNL1       -0.0000
      5 C         139.4913  139.1861  165.8811 C.ar    1  UNL1       -0.0001
      6 C         140.6822  139.8062  166.5496 C.ar    1  UNL1        0.0022
      7 C         142.4372  139.5947  168.0834 C.3     1  UNL1        0.0910
      8 C         141.8003  140.8229  168.6630 C.3     1  UNL1        0.2880
      9 N         140.7498  141.8357  169.0104 N.2     1  UNL1       -0.0454
     10 C         141.1114  143.0421  169.8251 C.2     1  UNL1        0.2946
     11 N         140.0609  144.0549  170.1725 N.pl3   1  UNL1       -0.2500
     12 C         142.5236  143.2357  170.2924 C.3     1  UNL1        0.1486
     13 C         143.5741  142.2229  169.9449 C.3     1  UNL1        0.1593
     14 O         143.2125  141.0165  169.1303 O.3     1  UNL1       -0.3152
     15 H         139.1341  143.9278  169.8659 H       1  UNL1        0.2881
     16 H         140.2983  144.8467  170.7072 H       1  UNL1        0.2881
     17 C         139.5642  138.7896  164.4362 C.ar    1  UNL1        0.0008
     18 C         140.7273  137.9847  163.9371 C.ar    1  UNL1        0.0001
     19 C         140.8003  137.5883  162.4923 C.ar    1  UNL1        0.0009
     20 C         139.7100  137.9967  161.5466 C.ar    1  UNL1        0.0114
     21 C         138.5468  138.8015  162.0457 C.ar    1  UNL1        0.0577
     22 CL        137.4564  139.2100  161.0999 Cl      1  UNL1       -0.0822
     23 C         138.4739  139.1980  163.4905 C.ar    1  UNL1        0.0114
@<TRIPOS>BOND
     1     7     8    1
     2     8     1    1
     3     1     2   ar
     4     2     3   ar
     5     3     4   ar
     6     4     5   ar
     7     5    17    1
     8    17    18   ar
     9    18    19   ar
    10    19    20   ar
    11    20    21   ar
    12    21    22    1
    13    21    23   ar
    14     5     6   ar
    15     8     9    1
    16     9    10    2
    17    10    11    1
    18    10    12    1
    19    12    13    1
    20    13    14    1
    21    14     8    1
    22     6     1   ar
    23    23    17   ar
    24    11    15    1
    25    11    16    1
@<TRIPOS>MOLECULE
*****
 23 25 0 0 0
SMALL
GASTEIGER

@<TRIPOS>ATOM
      1 C         140.1152  140.5079  167.5418 C.ar    1  UNL1        0.0487
      2 C         139.1657  139.3691  167.3147 C.ar    1  UNL1        0.0022
      3 C         138.2160  139.4045  166.1542 C.ar    1  UNL1       -0.0001
      4 C         138.2158  140.5787  165.2208 C.ar    1  UNL1       -0.0000
      5 C         139.1653  141.7175  165.4478 C.ar    1  UNL1       -0.0001
      6 C         140.1150  141.6821  166.6083 C.ar    1  UNL1        0.0022
      7 C         141.7191  139.4689  167.7998 C.3     1  UNL1        0.0910
      8 C         141.0649  140.4725  168.7023 C.3     1  UNL1        0.2880
      9 N         140.0808  141.4885  169.2019 N.2     1  UNL1       -0.0454
     10 C         140.2737  142.1205  170.5484 C.2     1  UNL1        0.2946
     11 N         139.2896  143.1365  171.0480 N.pl3   1  UNL1       -0.2500
     12 C         141.4506  141.7366  171.3955 C.3     1  UNL1        0.1486
     13 C         142.4346  140.7207  170.8960 C.3     1  UNL1        0.1593
     14 O         142.2418  140.0887  169.5494 O.3     1  UNL1       -0.3152
     15 H         138.5172  143.3884  170.4920 H       1  UNL1        0.2881
     16 H         139.4162  143.5513  171.9318 H       1  UNL1        0.2881
     17 C         139.1651  142.8916  164.5144 C.ar    1  UNL1        0.0008
     18 C         137.9107  143.2683  163.7832 C.ar    1  UNL1        0.0001
     19 C         137.9105  144.4425  162.8498 C.ar    1  UNL1        0.0009
     20 C         139.1647  145.2400  162.6476 C.ar    1  UNL1        0.0114
     21 C         140.4190  144.8634  163.3787 C.ar    1  UNL1        0.0577
     22 CL        141.6733  145.6609  163.1765 Cl      1  UNL1       -0.0822
     23 C         140.4192  143.6892  164.3122 C.ar    1  UNL1        0.0114
@<TRIPOS>BOND
     1     7     8    1
     2     8     1    1
     3     1     2   ar
     4     2     3   ar
     5     3     4   ar
     6     4     5   ar
     7     5    17    1
     8    17    18   ar
     9    18    19   ar
    10    19    20   ar
    11    20    21   ar
    12    21    22    1
    13    21    23   ar
    14     5     6   ar
    15     8     9    1
    16     9    10    2
    17    10    11    1
    18    10    12    1
    19    12    13    1
    20    13    14    1
    21    14     8    1
    22     6     1   ar
    23    23    17   ar
    24    11    15    1
    25    11    16    1
@<TRIPOS>MOLECULE
*****
 23 25 0 0 0
SMALL
GASTEIGER

@<TRIPOS>ATOM
      1 C         139.5616  140.1378  166.7580 C.ar    1  UNL1        0.0487
      2 C         138.5123  139.1811  167.2415 C.ar    1  UNL1        0.0022
      3 C         138.0986  138.0242  166.3811 C.ar    1  UNL1       -0.0001
      4 C         138.7341  137.8239  165.0372 C.ar    1  UNL1       -0.0000
      5 C         139.7834  138.7806  164.5537 C.ar    1  UNL1       -0.0001
      6 C         140.1971  139.9375  165.4141 C.ar    1  UNL1        0.0022
      7 C         140.0602  141.9339  166.2640 C.3     1  UNL1        0.0910
      8 C         139.9754  141.2948  167.6184 C.3     1  UNL1        0.2880
      9 N         139.7469  140.2538  168.6739 N.2     1  UNL1       -0.0454
     10 C         139.9616  140.5917  170.1195 C.2     1  UNL1        0.2946
     11 N         139.7331  139.5507  171.1750 N.pl3   1  UNL1       -0.2500
     12 C         140.4048  141.9706  170.5095 C.3     1  UNL1        0.1486
     13 C         140.6333  143.0116  169.4539 C.3     1  UNL1        0.1593
     14 O         140.4186  142.6737  168.0084 O.3     1  UNL1       -0.3152
     15 H         139.4422  138.6457  170.9191 H       1  UNL1        0.2881
     16 H         139.8740  139.7725  172.1238 H       1  UNL1        0.2881
     17 C         140.4189  138.5803  163.2098 C.ar    1  UNL1        0.0008
     18 C         139.5825  138.6507  161.9667 C.ar    1  UNL1        0.0001
     19 C         140.2180  138.4504  160.6228 C.ar    1  UNL1        0.0009
     20 C         141.6899  138.1798  160.5221 C.ar    1  UNL1        0.0114
     21 C         142.5263  138.1094  161.7652 C.ar    1  UNL1        0.0577
     22 CL        143.9983  137.8388  161.6645 Cl      1  UNL1       -0.0822
     23 C         141.8908  138.3097  163.1091 C.ar    1  UNL1        0.0114
@<TRIPOS>BOND
     1     7     8    1
     2     8     1    1
     3     1     2   ar
     4     2     3   ar
     5     3     4   ar
     6     4     5   ar
     7     5    17    1
     8    17    18   ar
     9    18    19   ar
    10    19    20   ar
    11    20    21   ar
    12    21    22    1
    13    21    23   ar
    14     5     6   ar
    15     8     9    1
    16     9    10    2
    17    10    11    1
    18    10    12    1
    19    12    13    1
    20    13    14    1
    21    14     8    1
    22     6     1   ar
    23    23    17   ar
    24    11    15    1
    25    11    16    1
@<TRIPOS>MOLECULE
*****
 23 25 0 0 0
SMALL
GASTEIGER

@<TRIPOS>ATOM
      1 C         143.7664  140.8607  165.0126 C.ar    1  UNL1        0.0487
      2 C         144.1238  139.4090  164.8905 C.ar    1  UNL1        0.0022
      3 C         143.7077  138.4418  165.9588 C.ar    1  UNL1       -0.0001
      4 C         142.9342  138.9262  167.1492 C.ar    1  UNL1       -0.0000
      5 C         142.5768  140.3778  167.2713 C.ar    1  UNL1       -0.0001
      6 C         142.9929  141.3451  166.2030 C.ar    1  UNL1        0.0022
      7 C         145.3276  140.8613  163.8807 C.3     1  UNL1        0.0910
      8 C         144.1825  141.8280  163.9443 C.3     1  UNL1        0.2880
      9 N         142.8928  142.4588  164.3790 N.2     1  UNL1       -0.0454
     10 C         142.4169  143.7211  163.7232 C.2     1  UNL1        0.2946
     11 N         141.1272  144.3519  164.1579 N.pl3   1  UNL1       -0.2500
     12 C         143.2306  144.3527  162.6329 C.3     1  UNL1        0.1486
     13 C         144.5203  143.7219  162.1982 C.3     1  UNL1        0.1593
     14 O         144.9962  142.4596  162.8540 O.3     1  UNL1       -0.3152
     15 H         140.5931  143.9374  164.8735 H       1  UNL1        0.2881
     16 H         140.8148  145.1804  163.7275 H       1  UNL1        0.2881
     17 C         141.8033  140.8622  168.4617 C.ar    1  UNL1        0.0008
     18 C         141.3382  139.8864  169.5016 C.ar    1  UNL1        0.0001
     19 C         140.5647  140.3708  170.6920 C.ar    1  UNL1        0.0009
     20 C         140.2563  141.8310  170.8425 C.ar    1  UNL1        0.0114
     21 C         140.7214  142.8068  169.8026 C.ar    1  UNL1        0.0577
     22 CL        140.4130  144.2671  169.9531 Cl      1  UNL1       -0.0822
     23 C         141.4949  142.3224  168.6122 C.ar    1  UNL1        0.0114
@<TRIPOS>BOND
     1     7     8    1
     2     8     1    1
     3     1     2   ar
     4     2     3   ar
     5     3     4   ar
     6     4     5   ar
     7     5    17    1
     8    17    18   ar
     9    18    19   ar
    10    19    20   ar
    11    20    21   ar
    12    21    22    1
    13    21    23   ar
    14     5     6   ar
    15     8     9    1
    16     9    10    2
    17    10    11    1
    18    10    12    1
    19    12    13    1
    20    13    14    1
    21    14     8    1
    22     6     1   ar
    23    23    17   ar
    24    11    15    1
    25    11    16    1
@<TRIPOS>MOLECULE
*****
 23 25 0 0 0
SMALL
GASTEIGER

@<TRIPOS>ATOM
      1 C         142.0853  140.2333  167.2741 C.ar    1  UNL1        0.0487
      2 C         143.1672  139.1945  167.2695 C.ar    1  UNL1        0.0022
      3 C         143.1753  138.1247  166.2180 C.ar    1  UNL1       -0.0001
      4 C         142.1014  138.0938  165.1713 C.ar    1  UNL1       -0.0000
      5 C         141.0194  139.1327  165.1759 C.ar    1  UNL1       -0.0001
      6 C         141.0113  140.2024  166.2274 C.ar    1  UNL1        0.0022
      7 C         142.8973  141.9823  167.2693 C.3     1  UNL1        0.0910
      8 C         142.0771  141.3031  168.3256 C.3     1  UNL1        0.2880
      9 N         141.2597  140.2523  169.0168 N.2     1  UNL1       -0.0454
     10 C         140.7191  140.5071  170.3925 C.2     1  UNL1        0.2946
     11 N         139.9017  139.4563  171.0837 N.pl3   1  UNL1       -0.2500
     12 C         140.9958  141.8128  171.0771 C.3     1  UNL1        0.1486
     13 C         141.8132  142.8636  170.3859 C.3     1  UNL1        0.1593
     14 O         142.3538  142.6087  169.0102 O.3     1  UNL1       -0.3152
     15 H         139.7201  138.5993  170.6344 H       1  UNL1        0.2881
     16 H         139.5469  139.6236  171.9867 H       1  UNL1        0.2881
     17 C         139.9455  139.1018  164.1291 C.ar    1  UNL1        0.0008
     18 C         139.6509  137.8278  163.3942 C.ar    1  UNL1        0.0001
     19 C         138.5770  137.7969  162.3475 C.ar    1  UNL1        0.0009
     20 C         137.7976  139.0400  162.0356 C.ar    1  UNL1        0.0114
     21 C         138.0922  140.3140  162.7705 C.ar    1  UNL1        0.0577
     22 CL        137.3129  141.5571  162.4586 Cl      1  UNL1       -0.0822
     23 C         139.1661  140.3449  163.8173 C.ar    1  UNL1        0.0114
@<TRIPOS>BOND
     1     7     8    1
     2     8     1    1
     3     1     2   ar
     4     2     3   ar
     5     3     4   ar
     6     4     5   ar
     7     5    17    1
     8    17    18   ar
     9    18    19   ar
    10    19    20   ar
    11    20    21   ar
    12    21    22    1
    13    21    23   ar
    14     5     6   ar
    15     8     9    1
    16     9    10    2
    17    10    11    1
    18    10    12    1
    19    12    13    1
    20    13    14    1
    21    14     8    1
    22     6     1   ar
    23    23    17   ar
    24    11    15    1
    25    11    16    1
@<TRIPOS>MOLECULE
*****
 23 25 0 0 0
SMALL
GASTEIGER

@<TRIPOS>ATOM
      1 C         140.0815  140.9896  167.5212 C.ar    1  UNL1        0.0487
      2 C         139.3501  139.7814  168.0263 C.ar    1  UNL1        0.0022
      3 C         138.3480  139.0905  167.1498 C.ar    1  UNL1       -0.0001
      4 C         138.0771  139.6079  165.7681 C.ar    1  UNL1       -0.0000
      5 C         138.8084  140.8162  165.2630 C.ar    1  UNL1       -0.0001
      6 C         139.8106  141.5071  166.1395 C.ar    1  UNL1        0.0022
      7 C         140.3734  142.8713  167.8256 C.3     1  UNL1        0.0910
      8 C         141.0837  141.6805  168.3977 C.3     1  UNL1        0.2880
      9 N         141.4460  140.2497  168.6654 N.2     1  UNL1       -0.0454
     10 C         142.5638  139.9234  169.6109 C.2     1  UNL1        0.2946
     11 N         142.9261  138.4926  169.8786 N.pl3   1  UNL1       -0.2500
     12 C         143.3194  141.0278  170.2887 C.3     1  UNL1        0.1486
     13 C         142.9571  142.4586  170.0210 C.3     1  UNL1        0.1593
     14 O         141.8393  142.7849  169.0755 O.3     1  UNL1       -0.3152
     15 H         142.4303  137.7677  169.4337 H       1  UNL1        0.2881
     16 H         143.6598  138.2784  170.4991 H       1  UNL1        0.2881
     17 C         138.5376  141.3336  163.8814 C.ar    1  UNL1        0.0008
     18 C         138.6134  142.8057  163.6036 C.ar    1  UNL1        0.0001
     19 C         138.3425  143.3231  162.2219 C.ar    1  UNL1        0.0009
     20 C         137.9958  142.3685  161.1181 C.ar    1  UNL1        0.0114
     21 C         137.9200  140.8964  161.3959 C.ar    1  UNL1        0.0577
     22 CL        137.5734  139.9417  160.2921 Cl      1  UNL1       -0.0822
     23 C         138.1909  140.3790  162.7776 C.ar    1  UNL1        0.0114
@<TRIPOS>BOND
     1     7     8    1
     2     8     1    1
     3     1     2   ar
     4     2     3   ar
     5     3     4   ar
     6     4     5   ar
     7     5    17    1
     8    17    18   ar
     9    18    19   ar
    10    19    20   ar
    11    20    21   ar
    12    21    22    1
    13    21    23   ar
    14     5     6   ar
    15     8     9    1
    16     9    10    2
    17    10    11    1
    18    10    12    1
    19    12    13    1
    20    13    14    1
    21    14     8    1
    22     6     1   ar
    23    23    17   ar
    24    11    15    1
    25    11    16    1
@<TRIPOS>MOLECULE
*****
 23 25 0 0 0
SMALL
GASTEIGER

@<TRIPOS>ATOM
      1 C         141.4660  143.5393  164.8580 C.ar    1  UNL1        0.0487
      2 C         142.9195  143.6500  164.5045 C.ar    1  UNL1        0.0022
      3 C         143.9569  143.0325  165.3948 C.ar    1  UNL1       -0.0001
      4 C         143.5407  142.3044  166.6384 C.ar    1  UNL1       -0.0000
      5 C         142.0872  142.1938  166.9919 C.ar    1  UNL1       -0.0001
      6 C         141.0498  142.8113  166.1016 C.ar    1  UNL1        0.0022
      7 C         141.5417  145.1476  163.7966 C.3     1  UNL1        0.0910
      8 C         140.4285  144.1568  163.9677 C.3     1  UNL1        0.2880
      9 N         139.6757  142.9516  164.4480 N.2     1  UNL1       -0.0454
     10 C         138.2720  142.7079  163.9786 C.2     1  UNL1        0.2946
     11 N         137.5192  141.5027  164.4589 N.pl3   1  UNL1       -0.2500
     12 C         137.6212  143.6694  163.0290 C.3     1  UNL1        0.1486
     13 C         138.3741  144.8747  162.5487 C.3     1  UNL1        0.1593
     14 O         139.7777  145.1184  163.0180 O.3     1  UNL1       -0.3152
     15 H         137.9463  140.8716  165.0822 H       1  UNL1        0.2881
     16 H         136.5979  141.3427  164.1509 H       1  UNL1        0.2881
     17 C         141.6710  141.4657  168.2355 C.ar    1  UNL1        0.0008
     18 C         142.7052  141.0273  169.2296 C.ar    1  UNL1        0.0001
     19 C         142.2890  140.2992  170.4732 C.ar    1  UNL1        0.0009
     20 C         140.8386  140.0095  170.7228 C.ar    1  UNL1        0.0114
     21 C         139.8044  140.4479  169.7288 C.ar    1  UNL1        0.0577
     22 CL        138.3539  140.1582  169.9783 Cl      1  UNL1       -0.0822
     23 C         140.2206  141.1760  168.4851 C.ar    1  UNL1        0.0114
@<TRIPOS>BOND
     1     7     8    1
     2     8     1    1
     3     1     2   ar
     4     2     3   ar
     5     3     4   ar
     6     4     5   ar
     7     5    17    1
     8    17    18   ar
     9    18    19   ar
    10    19    20   ar
    11    20    21   ar
    12    21    22    1
    13    21    23   ar
    14     5     6   ar
    15     8     9    1
    16     9    10    2
    17    10    11    1
    18    10    12    1
    19    12    13    1
    20    13    14    1
    21    14     8    1
    22     6     1   ar
    23    23    17   ar
    24    11    15    1
    25    11    16    1
