@<TRIPOS>MOLECULE
*****
 28 32 0 0 0
SMALL
GASTEIGER

@<TRIPOS>ATOM
      1 C         142.5933  143.1700  170.3850 C.3     1  UNL1        0.0175
      2 C         142.1919  142.3310  169.2082 C.3     1  UNL1        0.0592
      3 C         143.0492  142.3062  167.9775 C.3     1  UNL1        0.0434
      4 C         142.6478  141.4672  166.8007 C.2     1  UNL1       -0.0040
      5 C         141.3890  140.6530  166.8544 C.2     1  UNL1        0.0798
      6 N         141.2504  139.9271  165.5491 N.2     1  UNL1       -0.2518
      7 C         142.4234  140.2926  164.6886 C.2     1  UNL1        0.0653
      8 C         142.8168  139.8817  163.3007 C.3     1  UNL1        0.1045
      9 C         144.0737  140.4226  162.6862 C.2     1  UNL1        0.1508
     10 F         144.4670  140.0118  161.2982 F       1  UNL1       -0.2061
     11 C         144.9373  141.3744  163.4597 C.2     1  UNL1        0.1637
     12 F         146.1942  141.9153  162.8452 F       1  UNL1       -0.2021
     13 C         144.5440  141.7853  164.8476 C.2     1  UNL1        0.0325
     14 C         143.2870  141.2444  165.4621 C.2     1  UNL1        0.0135
     15 C         140.5318  140.6779  168.0851 C.3     1  UNL1        0.1673
     16 N         140.9332  141.5168  169.2619 N.3     1  UNL1       -0.2858
     17 C         139.5790  140.6028  169.2412 C.2     1  UNL1        0.2481
     18 O         139.7177  141.3287  170.5465 O.2     1  UNL1       -0.2726
     19 N         138.4633  139.6744  168.8628 N.am    1  UNL1       -0.2825
     20 C         138.7265  139.1757  167.4728 C.ar    1  UNL1        0.0484
     21 C         137.9672  138.2369  166.5828 C.ar    1  UNL1        0.0153
     22 C         138.4864  137.9184  165.2120 C.ar    1  UNL1        0.0126
     23 C         139.7648  138.5386  164.7314 C.ar    1  UNL1        0.0575
     24 CL        140.2839  138.2200  163.3605 Cl      1  UNL1       -0.0823
     25 C         140.5241  139.4773  165.6214 C.ar    1  UNL1        0.0104
     26 C         140.0049  139.7958  166.9922 C.ar    1  UNL1        0.0184
     27 H         141.0254  140.8843  170.0567 H       1  UNL1        0.1242
     28 H         137.6934  139.4345  169.4276 H       1  UNL1        0.1549
@<TRIPOS>BOND
     1     2     1    1
     2     2     3    1
     3     3     4    1
     4     4     5    2
     5     5     6    1
     6     6     7    2
     7     7     8    1
     8     8     9    1
     9     9    10    1
    10     9    11    2
    11    11    12    1
    12    11    13    1
    13    13    14    2
    14     5    15    1
    15    15    16    1
    16    15    17    1
    17    17    18    2
    18    17    19   am
    19    19    20    1
    20    20    21   ar
    21    21    22   ar
    22    22    23   ar
    23    23    24    1
    24    23    25   ar
    25    25    26   ar
    26    16     2    1
    27    26    20   ar
    28    14     4    1
    29    26    15    1
    30    14     7    1
    31    16    27    1
    32    19    28    1
@<TRIPOS>MOLECULE
*****
 28 32 0 0 0
SMALL
GASTEIGER

@<TRIPOS>ATOM
      1 C         139.7477  146.0007  162.2028 C.3     1  UNL1        0.0175
      2 C         139.6148  144.5960  162.7117 C.3     1  UNL1        0.0592
      3 C         139.8904  144.2916  164.1543 C.3     1  UNL1        0.0434
      4 C         139.7574  142.8868  164.6631 C.2     1  UNL1       -0.0040
      5 C         139.3488  141.7863  163.7293 C.2     1  UNL1        0.0798
      6 N         139.3008  140.5078  164.5123 N.2     1  UNL1       -0.2518
      7 C         139.6798  140.8180  165.9300 C.2     1  UNL1        0.0653
      8 C         139.8045  139.9517  167.1482 C.3     1  UNL1        0.1045
      9 C         140.2113  140.5556  168.4596 C.2     1  UNL1        0.1508
     10 F         140.3359  139.6893  169.6778 F       1  UNL1       -0.2061
     11 C         140.4935  142.0259  168.5529 C.2     1  UNL1        0.1637
     12 F         140.9003  142.6298  169.8643 F       1  UNL1       -0.2021
     13 C         140.3688  142.8922  167.3348 C.2     1  UNL1        0.0325
     14 C         139.9620  142.2883  166.0233 C.2     1  UNL1        0.0135
     15 C         139.0731  142.0907  162.2866 C.3     1  UNL1        0.1673
     16 N         139.2061  143.4955  161.7778 N.3     1  UNL1       -0.2858
     17 C         138.7663  142.2423  160.8262 C.2     1  UNL1        0.2481
     18 O         138.8143  143.5208  160.0432 O.2     1  UNL1       -0.2726
     19 N         138.4031  140.8908  160.2862 N.am    1  UNL1       -0.2825
     20 C         138.4855  139.9040  161.4129 C.ar    1  UNL1        0.0484
     21 C         138.2369  138.4259  161.4728 C.ar    1  UNL1        0.0153
     22 C         138.4025  137.6895  162.7690 C.ar    1  UNL1        0.0126
     23 C         138.8165  138.4312  164.0054 C.ar    1  UNL1        0.0575
     24 CL        138.9821  137.6947  165.3016 Cl      1  UNL1       -0.0823
     25 C         139.0651  139.9092  163.9455 C.ar    1  UNL1        0.0104
     26 C         138.8996  140.6456  162.6492 C.ar    1  UNL1        0.0184
     27 H         138.2979  143.7569  161.3942 H       1  UNL1        0.1242
     28 H         138.1544  140.6872  159.3557 H       1  UNL1        0.1549
@<TRIPOS>BOND
     1     2     1    1
     2     2     3    1
     3     3     4    1
     4     4     5    2
     5     5     6    1
     6     6     7    2
     7     7     8    1
     8     8     9    1
     9     9    10    1
    10     9    11    2
    11    11    12    1
    12    11    13    1
    13    13    14    2
    14     5    15    1
    15    15    16    1
    16    15    17    1
    17    17    18    2
    18    17    19   am
    19    19    20    1
    20    20    21   ar
    21    21    22   ar
    22    22    23   ar
    23    23    24    1
    24    23    25   ar
    25    25    26   ar
    26    16     2    1
    27    26    20   ar
    28    14     4    1
    29    26    15    1
    30    14     7    1
    31    16    27    1
    32    19    28    1
@<TRIPOS>MOLECULE
*****
 28 32 0 0 0
SMALL
GASTEIGER

@<TRIPOS>ATOM
      1 C         145.8844  141.7491  163.2599 C.3     1  UNL1        0.0175
      2 C         144.5929  141.2514  163.8378 C.3     1  UNL1        0.0592
      3 C         144.1005  141.7903  165.1482 C.3     1  UNL1        0.0434
      4 C         142.8089  141.2925  165.7261 C.2     1  UNL1       -0.0040
      5 C         142.0097  140.2556  164.9938 C.2     1  UNL1        0.0798
      6 N         140.7832  139.9578  165.8043 N.2     1  UNL1       -0.2518
      7 C         140.8243  140.8106  167.0376 C.2     1  UNL1        0.0653
      8 C         139.8835  140.9426  168.1984 C.3     1  UNL1        0.1045
      9 C         140.1946  141.8995  169.3109 C.2     1  UNL1        0.1508
     10 F         139.2538  142.0315  170.4717 F       1  UNL1       -0.2061
     11 C         141.4465  142.7244  169.2626 C.2     1  UNL1        0.1637
     12 F         141.7576  143.6812  170.3751 F       1  UNL1       -0.2021
     13 C         142.3873  142.5924  168.1018 C.2     1  UNL1        0.0325
     14 C         142.0762  141.6355  166.9893 C.2     1  UNL1        0.0135
     15 C         142.5022  139.7166  163.6834 C.3     1  UNL1        0.1673
     16 N         143.7937  140.2145  163.1055 N.3     1  UNL1       -0.2858
     17 C         142.8658  139.0880  162.3709 C.2     1  UNL1        0.2481
     18 O         144.0923  139.3858  161.5604 O.2     1  UNL1       -0.2726
     19 N         141.7875  138.1093  162.0113 N.am    1  UNL1       -0.2825
     20 C         140.7575  138.1330  163.1015 C.ar    1  UNL1        0.0484
     21 C         139.4744  137.3784  163.2867 C.ar    1  UNL1        0.0153
     22 C         138.6331  137.6172  164.5054 C.ar    1  UNL1        0.0126
     23 C         139.0749  138.6107  165.5388 C.ar    1  UNL1        0.0575
     24 CL        138.2335  138.8495  166.7575 Cl      1  UNL1       -0.0823
     25 C         140.3579  139.3653  165.3536 C.ar    1  UNL1        0.0104
     26 C         141.1992  139.1264  164.1350 C.ar    1  UNL1        0.0184
     27 H         143.5751  140.6046  162.1887 H       1  UNL1        0.1242
     28 H         141.7605  137.5496  161.2019 H       1  UNL1        0.1549
@<TRIPOS>BOND
     1     2     1    1
     2     2     3    1
     3     3     4    1
     4     4     5    2
     5     5     6    1
     6     6     7    2
     7     7     8    1
     8     8     9    1
     9     9    10    1
    10     9    11    2
    11    11    12    1
    12    11    13    1
    13    13    14    2
    14     5    15    1
    15    15    16    1
    16    15    17    1
    17    17    18    2
    18    17    19   am
    19    19    20    1
    20    20    21   ar
    21    21    22   ar
    22    22    23   ar
    23    23    24    1
    24    23    25   ar
    25    25    26   ar
    26    16     2    1
    27    26    20   ar
    28    14     4    1
    29    26    15    1
    30    14     7    1
    31    16    27    1
    32    19    28    1
@<TRIPOS>MOLECULE
*****
 28 32 0 0 0
SMALL
GASTEIGER

@<TRIPOS>ATOM
      1 C         143.7028  144.5363  163.2302 C.3     1  UNL1        0.0175
      2 C         142.8137  143.4041  163.6516 C.3     1  UNL1        0.0592
      3 C         142.3619  143.2960  165.0779 C.3     1  UNL1        0.0434
      4 C         141.4729  142.1638  165.4993 C.2     1  UNL1       -0.0040
      5 C         141.0356  141.1395  164.4944 C.2     1  UNL1        0.0798
      6 N         140.1642  140.1419  165.1984 N.2     1  UNL1       -0.2518
      7 C         140.0629  140.5497  166.6384 C.2     1  UNL1        0.0653
      8 C         139.3388  139.9446  167.8043 C.3     1  UNL1        0.1045
      9 C         139.4233  140.5891  169.1562 C.2     1  UNL1        0.1508
     10 F         138.6992  139.9840  170.3221 F       1  UNL1       -0.2061
     11 C         140.2321  141.8386  169.3422 C.2     1  UNL1        0.1637
     12 F         140.3167  142.4830  170.6941 F       1  UNL1       -0.2021
     13 C         140.9563  142.4436  168.1762 C.2     1  UNL1        0.0325
     14 C         140.8717  141.7992  166.8244 C.2     1  UNL1        0.0135
     15 C         141.4874  141.2475  163.0682 C.3     1  UNL1        0.1673
     16 N         142.3764  142.3798  162.6468 N.3     1  UNL1       -0.2858
     17 C         141.8567  141.2248  161.6145 C.2     1  UNL1        0.2481
     18 O         142.7281  142.2224  160.9105 O.2     1  UNL1       -0.2726
     19 N         141.2016  140.0294  160.9885 N.am    1  UNL1       -0.2825
     20 C         140.4274  139.3133  162.0552 C.ar    1  UNL1        0.0484
     21 C         139.5845  138.0731  162.0223 C.ar    1  UNL1        0.0153
     22 C         138.9182  137.5856  163.2746 C.ar    1  UNL1        0.0126
     23 C         139.0948  138.3384  164.5599 C.ar    1  UNL1        0.0575
     24 CL        138.4285  137.8509  165.8123 Cl      1  UNL1       -0.0823
     25 C         139.9378  139.5787  164.5929 C.ar    1  UNL1        0.0104
     26 C         140.6041  140.0662  163.3406 C.ar    1  UNL1        0.0184
     27 H         141.8831  142.8828  161.9093 H       1  UNL1        0.1242
     28 H         141.2681  139.7618  160.0434 H       1  UNL1        0.1549
@<TRIPOS>BOND
     1     2     1    1
     2     2     3    1
     3     3     4    1
     4     4     5    2
     5     5     6    1
     6     6     7    2
     7     7     8    1
     8     8     9    1
     9     9    10    1
    10     9    11    2
    11    11    12    1
    12    11    13    1
    13    13    14    2
    14     5    15    1
    15    15    16    1
    16    15    17    1
    17    17    18    2
    18    17    19   am
    19    19    20    1
    20    20    21   ar
    21    21    22   ar
    22    22    23   ar
    23    23    24    1
    24    23    25   ar
    25    25    26   ar
    26    16     2    1
    27    26    20   ar
    28    14     4    1
    29    26    15    1
    30    14     7    1
    31    16    27    1
    32    19    28    1
@<TRIPOS>MOLECULE
*****
 28 32 0 0 0
SMALL
GASTEIGER

@<TRIPOS>ATOM
      1 C         144.8083  143.6332  165.6916 C.3     1  UNL1        0.0175
      2 C         143.8022  142.6386  165.1933 C.3     1  UNL1        0.0592
      3 C         142.7287  142.1335  166.1112 C.3     1  UNL1        0.0434
      4 C         141.7226  141.1388  165.6128 C.2     1  UNL1       -0.0040
      5 C         141.7898  140.6492  164.1965 C.2     1  UNL1        0.0798
      6 N         140.6687  139.6744  163.9893 N.2     1  UNL1       -0.2518
      7 C         139.9086  139.5616  165.2775 C.2     1  UNL1        0.0653
      8 C         138.7075  138.7516  165.6664 C.3     1  UNL1        0.1045
      9 C         138.1576  138.8467  167.0588 C.2     1  UNL1        0.1508
     10 F         136.9565  138.0367  167.4477 F       1  UNL1       -0.2061
     11 C         138.8089  139.7517  168.0622 C.2     1  UNL1        0.1637
     12 F         138.2590  139.8467  169.4546 F       1  UNL1       -0.2021
     13 C         140.0100  140.5616  167.6732 C.2     1  UNL1        0.0325
     14 C         140.5598  140.4666  166.2809 C.2     1  UNL1        0.0135
     15 C         142.8633  141.1543  163.2786 C.3     1  UNL1        0.1673
     16 N         143.8694  142.1489  163.7770 N.3     1  UNL1       -0.2858
     17 C         143.8742  141.5671  162.2502 C.2     1  UNL1        0.2481
     18 O         144.9953  142.5418  162.4575 O.2     1  UNL1       -0.2726
     19 N         143.5672  140.8339  160.9781 N.am    1  UNL1       -0.2825
     20 C         142.3665  139.9680  161.2204 C.ar    1  UNL1        0.0484
     21 C         141.6132  139.0249  160.3300 C.ar    1  UNL1        0.0153
     22 C         140.4248  138.2797  160.8614 C.ar    1  UNL1        0.0126
     23 C         139.9897  138.4777  162.2832 C.ar    1  UNL1        0.0575
     24 CL        138.8013  137.7325  162.8146 Cl      1  UNL1       -0.0823
     25 C         140.7431  139.4209  163.1736 C.ar    1  UNL1        0.0104
     26 C         141.9315  140.1660  162.6422 C.ar    1  UNL1        0.0184
     27 H         143.7931  142.9706  163.1775 H       1  UNL1        0.1242
     28 H         144.0661  140.9080  160.1327 H       1  UNL1        0.1549
@<TRIPOS>BOND
     1     2     1    1
     2     2     3    1
     3     3     4    1
     4     4     5    2
     5     5     6    1
     6     6     7    2
     7     7     8    1
     8     8     9    1
     9     9    10    1
    10     9    11    2
    11    11    12    1
    12    11    13    1
    13    13    14    2
    14     5    15    1
    15    15    16    1
    16    15    17    1
    17    17    18    2
    18    17    19   am
    19    19    20    1
    20    20    21   ar
    21    21    22   ar
    22    22    23   ar
    23    23    24    1
    24    23    25   ar
    25    25    26   ar
    26    16     2    1
    27    26    20   ar
    28    14     4    1
    29    26    15    1
    30    14     7    1
    31    16    27    1
    32    19    28    1
@<TRIPOS>MOLECULE
*****
 28 32 0 0 0
SMALL
GASTEIGER

@<TRIPOS>ATOM
      1 C         139.8644  143.2390  170.7115 C.3     1  UNL1        0.0175
      2 C         140.3686  142.6864  169.4114 C.3     1  UNL1        0.0592
      3 C         140.0316  143.3755  168.1224 C.3     1  UNL1        0.0434
      4 C         140.5359  142.8228  166.8224 C.2     1  UNL1       -0.0040
      5 C         141.3773  141.5810  166.8112 C.2     1  UNL1        0.0798
      6 N         141.7291  141.2723  165.3861 N.2     1  UNL1       -0.2518
      7 C         141.1051  142.3232  164.5165 C.2     1  UNL1        0.0653
      8 C         141.1132  142.5313  163.0310 C.3     1  UNL1        0.1045
      9 C         140.3838  143.6978  162.4332 C.2     1  UNL1        0.1508
     10 F         140.3918  143.9059  160.9477 F       1  UNL1       -0.2061
     11 C         139.6463  144.6561  163.3208 C.2     1  UNL1        0.1637
     12 F         138.9169  145.8225  162.7229 F       1  UNL1       -0.2021
     13 C         139.6383  144.4479  164.8062 C.2     1  UNL1        0.0325
     14 C         140.3677  143.2815  165.4041 C.2     1  UNL1        0.0135
     15 C         141.7144  140.8920  168.1002 C.3     1  UNL1        0.1673
     16 N         141.2101  141.4446  169.4003 N.3     1  UNL1       -0.2858
     17 C         142.1308  140.0984  169.3030 C.2     1  UNL1        0.2481
     18 O         141.7790  140.4072  170.7281 O.2     1  UNL1       -0.2726
     19 N         142.9609  138.9418  168.8305 N.am    1  UNL1       -0.2825
     20 C         143.0574  139.0205  167.3357 C.ar    1  UNL1        0.0484
     21 C         143.7473  138.1505  166.3272 C.ar    1  UNL1        0.0153
     22 C         143.6668  138.4857  164.8674 C.ar    1  UNL1        0.0126
     23 C         142.8964  139.6910  164.4161 C.ar    1  UNL1        0.0575
     24 CL        142.8159  140.0262  162.9562 Cl      1  UNL1       -0.0823
     25 C         142.2065  140.5611  165.4245 C.ar    1  UNL1        0.0104
     26 C         142.2870  140.2258  166.8843 C.ar    1  UNL1        0.0184
     27 H         142.0298  141.6392  169.9752 H       1  UNL1        0.1242
     28 H         143.3704  138.2520  169.4013 H       1  UNL1        0.1549
@<TRIPOS>BOND
     1     2     1    1
     2     2     3    1
     3     3     4    1
     4     4     5    2
     5     5     6    1
     6     6     7    2
     7     7     8    1
     8     8     9    1
     9     9    10    1
    10     9    11    2
    11    11    12    1
    12    11    13    1
    13    13    14    2
    14     5    15    1
    15    15    16    1
    16    15    17    1
    17    17    18    2
    18    17    19   am
    19    19    20    1
    20    20    21   ar
    21    21    22   ar
    22    22    23   ar
    23    23    24    1
    24    23    25   ar
    25    25    26   ar
    26    16     2    1
    27    26    20   ar
    28    14     4    1
    29    26    15    1
    30    14     7    1
    31    16    27    1
    32    19    28    1
@<TRIPOS>MOLECULE
*****
 28 32 0 0 0
SMALL
GASTEIGER

@<TRIPOS>ATOM
      1 C         143.9782  142.4785  170.1581 C.3     1  UNL1        0.0175
      2 C         143.1459  142.0627  168.9816 C.3     1  UNL1        0.0592
      3 C         143.5596  142.4546  167.5941 C.3     1  UNL1        0.0434
      4 C         142.7272  142.0388  166.4176 C.2     1  UNL1       -0.0040
      5 C         141.4809  141.2311  166.6285 C.2     1  UNL1        0.0798
      6 N         140.8659  140.9683  165.2859 N.2     1  UNL1       -0.2518
      7 C         141.7321  141.6137  164.2451 C.2     1  UNL1        0.0653
      8 C         141.6220  141.6844  162.7508 C.3     1  UNL1        0.1045
      9 C         142.6622  142.4166  161.9559 C.2     1  UNL1        0.1508
     10 F         142.5521  142.4873  160.4616 F       1  UNL1       -0.2061
     11 C         143.8125  143.0782  162.6553 C.2     1  UNL1        0.1637
     12 F         144.8527  143.8104  161.8604 F       1  UNL1       -0.2021
     13 C         143.9226  143.0075  164.1495 C.2     1  UNL1        0.0325
     14 C         142.8824  142.2752  164.9444 C.2     1  UNL1        0.0135
     15 C         141.0671  140.8392  168.0161 C.3     1  UNL1        0.1673
     16 N         141.8996  141.2550  169.1925 N.3     1  UNL1       -0.2858
     17 C         140.5302  140.3756  169.3377 C.2     1  UNL1        0.2481
     18 O         141.1451  140.6383  170.6804 O.2     1  UNL1       -0.2726
     19 N         139.2702  139.6032  169.0809 N.am    1  UNL1       -0.2825
     20 C         139.0285  139.5894  167.6006 C.ar    1  UNL1        0.0484
     21 C         137.9407  138.9799  166.7669 C.ar    1  UNL1        0.0153
     22 C         137.9634  139.1344  165.2751 C.ar    1  UNL1        0.0126
     23 C         139.0739  139.8983  164.6169 C.ar    1  UNL1        0.0575
     24 CL        139.0966  140.0527  163.1250 Cl      1  UNL1       -0.0823
     25 C         140.1618  140.5077  165.4506 C.ar    1  UNL1        0.0104
     26 C         140.1391  140.3533  166.9424 C.ar    1  UNL1        0.0184
     27 H         142.1808  140.3994  169.6714 H       1  UNL1        0.1242
     28 H         138.7018  139.1797  169.7640 H       1  UNL1        0.1549
@<TRIPOS>BOND
     1     2     1    1
     2     2     3    1
     3     3     4    1
     4     4     5    2
     5     5     6    1
     6     6     7    2
     7     7     8    1
     8     8     9    1
     9     9    10    1
    10     9    11    2
    11    11    12    1
    12    11    13    1
    13    13    14    2
    14     5    15    1
    15    15    16    1
    16    15    17    1
    17    17    18    2
    18    17    19   am
    19    19    20    1
    20    20    21   ar
    21    21    22   ar
    22    22    23   ar
    23    23    24    1
    24    23    25   ar
    25    25    26   ar
    26    16     2    1
    27    26    20   ar
    28    14     4    1
    29    26    15    1
    30    14     7    1
    31    16    27    1
    32    19    28    1
@<TRIPOS>MOLECULE
*****
 28 32 0 0 0
SMALL
GASTEIGER

@<TRIPOS>ATOM
      1 C         136.6679  137.8208  167.9872 C.3     1  UNL1        0.0175
      2 C         137.8234  138.5073  167.3212 C.3     1  UNL1        0.0592
      3 C         138.0580  138.3249  165.8510 C.3     1  UNL1        0.0434
      4 C         139.2134  139.0115  165.1851 C.2     1  UNL1       -0.0040
      5 C         140.1344  139.8805  165.9893 C.2     1  UNL1        0.0798
      6 N         141.1822  140.4259  165.0649 N.2     1  UNL1       -0.2518
      7 C         140.9089  139.8939  163.6892 C.2     1  UNL1        0.0653
      8 C         141.6108  140.0926  162.3786 C.3     1  UNL1        0.1045
      9 C         141.0960  139.4172  161.1421 C.2     1  UNL1        0.1508
     10 F         141.7978  139.6158  159.8315 F       1  UNL1       -0.2061
     11 C         139.8792  138.5431  161.2164 C.2     1  UNL1        0.1637
     12 F         139.3644  137.8676  159.9799 F       1  UNL1       -0.2021
     13 C         139.1773  138.3444  162.5270 C.2     1  UNL1        0.0325
     14 C         139.6922  139.0198  163.7635 C.2     1  UNL1        0.0135
     15 C         139.8998  140.0629  167.4596 C.3     1  UNL1        0.1673
     16 N         138.7443  139.3763  168.1255 N.3     1  UNL1       -0.2858
     17 C         139.7917  140.3381  168.9301 C.2     1  UNL1        0.2481
     18 O         138.7439  139.7927  169.8546 O.2     1  UNL1       -0.2726
     19 N         140.9155  141.2545  169.3139 N.am    1  UNL1       -0.2825
     20 C         141.7181  141.5456  168.0806 C.ar    1  UNL1        0.0484
     21 C         142.9394  142.3861  167.8530 C.ar    1  UNL1        0.0153
     22 C         143.5330  142.4902  166.4794 C.ar    1  UNL1        0.0126
     23 C         142.9052  141.7537  165.3334 C.ar    1  UNL1        0.0575
     24 CL        143.4988  141.8578  163.9597 Cl      1  UNL1       -0.0823
     25 C         141.6838  140.9132  165.5609 C.ar    1  UNL1        0.0104
     26 C         141.0903  140.8091  166.9345 C.ar    1  UNL1        0.0184
     27 H         138.1688  140.1072  168.5438 H       1  UNL1        0.1242
     28 H         141.0949  141.6036  170.2168 H       1  UNL1        0.1549
@<TRIPOS>BOND
     1     2     1    1
     2     2     3    1
     3     3     4    1
     4     4     5    2
     5     5     6    1
     6     6     7    2
     7     7     8    1
     8     8     9    1
     9     9    10    1
    10     9    11    2
    11    11    12    1
    12    11    13    1
    13    13    14    2
    14     5    15    1
    15    15    16    1
    16    15    17    1
    17    17    18    2
    18    17    19   am
    19    19    20    1
    20    20    21   ar
    21    21    22   ar
    22    22    23   ar
    23    23    24    1
    24    23    25   ar
    25    25    26   ar
    26    16     2    1
    27    26    20   ar
    28    14     4    1
    29    26    15    1
    30    14     7    1
    31    16    27    1
    32    19    28    1
@<TRIPOS>MOLECULE
*****
 28 32 0 0 0
SMALL
GASTEIGER

@<TRIPOS>ATOM
      1 C         138.7928  137.6250  163.0580 C.3     1  UNL1        0.0175
      2 C         139.3460  138.5100  164.1353 C.3     1  UNL1        0.0592
      3 C         140.5354  139.3797  163.8543 C.3     1  UNL1        0.0434
      4 C         141.0886  140.2647  164.9317 C.2     1  UNL1       -0.0040
      5 C         140.4525  140.2801  166.2901 C.2     1  UNL1        0.0798
      6 N         141.2128  141.2483  167.1471 N.2     1  UNL1       -0.2518
      7 C         142.3188  141.8314  166.3185 C.2     1  UNL1        0.0653
      8 C         143.3859  142.8373  166.6338 C.3     1  UNL1        0.1045
      9 C         144.3763  143.2354  165.5799 C.2     1  UNL1        0.1508
     10 F         145.4434  144.2413  165.8952 F       1  UNL1       -0.2061
     11 C         144.2996  142.6275  164.2107 C.2     1  UNL1        0.1637
     12 F         145.2900  143.0256  163.1568 F       1  UNL1       -0.2021
     13 C         143.2326  141.6216  163.8954 C.2     1  UNL1        0.0325
     14 C         142.2422  141.2235  164.9493 C.2     1  UNL1        0.0135
     15 C         139.2631  139.4104  166.5710 C.3     1  UNL1        0.1673
     16 N         138.7099  138.5254  165.4937 N.3     1  UNL1       -0.2858
     17 C         138.0752  138.5997  166.9974 C.2     1  UNL1        0.2481
     18 O         137.3149  137.6315  166.1404 O.2     1  UNL1       -0.2726
     19 N         137.7811  138.9274  168.4314 N.am    1  UNL1       -0.2825
     20 C         138.7872  139.9405  168.8912 C.ar    1  UNL1        0.0484
     21 C         138.9877  140.6297  170.2083 C.ar    1  UNL1        0.0153
     22 C         140.1040  141.6174  170.3756 C.ar    1  UNL1        0.0126
     23 C         141.0200  141.9159  169.2258 C.ar    1  UNL1        0.0575
     24 CL        142.1364  142.9037  169.3932 Cl      1  UNL1       -0.0823
     25 C         140.8195  141.2267  167.9087 C.ar    1  UNL1        0.0104
     26 C         139.7032  140.2390  167.7414 C.ar    1  UNL1        0.0184
     27 H         137.7362  138.7981  165.3597 H       1  UNL1        0.1242
     28 H         137.0552  138.5447  168.9752 H       1  UNL1        0.1549
@<TRIPOS>BOND
     1     2     1    1
     2     2     3    1
     3     3     4    1
     4     4     5    2
     5     5     6    1
     6     6     7    2
     7     7     8    1
     8     8     9    1
     9     9    10    1
    10     9    11    2
    11    11    12    1
    12    11    13    1
    13    13    14    2
    14     5    15    1
    15    15    16    1
    16    15    17    1
    17    17    18    2
    18    17    19   am
    19    19    20    1
    20    20    21   ar
    21    21    22   ar
    22    22    23   ar
    23    23    24    1
    24    23    25   ar
    25    25    26   ar
    26    16     2    1
    27    26    20   ar
    28    14     4    1
    29    26    15    1
    30    14     7    1
    31    16    27    1
    32    19    28    1
