@<TRIPOS>MOLECULE
*****
 33 37 0 0 0
SMALL
GASTEIGER

@<TRIPOS>ATOM
      1 C         140.5164  140.0809  163.8486 C.ar    1  UNL1        0.0957
      2 C         139.4577  139.2269  163.2166 C.ar    1  UNL1        0.1191
      3 N         138.3922  138.6011  164.0669 N.ar    1  UNL1       -0.2223
      4 C         138.3854  138.8293  165.5494 C.ar    1  UNL1        0.1784
      5 N         137.4696  138.3472  166.6351 N.ar    1  UNL1       -0.2236
      6 C         137.9622  138.9032  167.9382 C.ar    1  UNL1        0.1066
      7 C         139.1827  139.7290  167.6579 C.ar    1  UNL1        0.0910
      8 C         139.4442  139.6834  166.1816 C.ar    1  UNL1        0.0988
      9 N         140.5097  140.3091  165.3312 N.ar    1  UNL1       -0.3481
     10 H         141.2046  140.8697  165.7461 H       1  UNL1        0.1661
     11 C         144.1176  140.8420  160.0627 C.3     1  UNL1        0.1537
     12 N         143.2372  141.0565  161.2581 N.ar    1  UNL1       -0.2487
     13 N         142.2335  140.0823  161.8000 N.ar    1  UNL1       -0.1677
     14 C         141.5820  140.7066  162.9982 C.ar    1  UNL1        0.1193
     15 C         142.1829  142.0665  163.1969 C.ar    1  UNL1        0.0382
     16 C         141.9308  143.1359  164.2181 C.ar    1  UNL1        0.0054
     17 C         142.7017  144.4214  164.1638 C.ar    1  UNL1        0.0298
     18 C         143.7247  144.6377  163.0883 C.ar    1  UNL1        0.1416
     19 F         144.4957  145.9233  163.0340 F       1  UNL1       -0.2041
     20 C         143.9769  143.5683  162.0671 C.ar    1  UNL1        0.0484
     21 C         143.2060  142.2828  162.1214 C.ar    1  UNL1        0.0817
     22 C         139.9984  140.4704  168.6753 C.2     1  UNL1        0.2488
     23 O         140.2591  139.8568  170.0190 O.2     1  UNL1       -0.2700
     24 N         140.5532  141.8252  168.3491 N.am    1  UNL1       -0.3038
     25 H         140.3821  142.2279  167.4672 H       1  UNL1        0.1496
     26 C         141.3689  142.5665  169.3665 C.3     1  UNL1        0.0596
     27 C         140.1197  143.1931  169.9115 C.3     1  UNL1        0.0197
     28 C         142.6180  141.9399  168.8216 C.3     1  UNL1        0.0336
     29 C         143.4338  142.6812  169.8390 C.3     1  UNL1        0.0540
     30 N         144.8938  142.7623  170.1732 N.3     1  UNL1       -0.3221
     31 C         142.1846  143.3077  170.3840 C.3     1  UNL1        0.0336
     32 H         145.0282  143.4008  170.9572 H       1  UNL1        0.1188
     33 H         145.4095  143.1056  169.3629 H       1  UNL1        0.1188
@<TRIPOS>BOND
     1    11    12    1
     2    12    13   ar
     3    13    14   ar
     4    14     1    1
     5     1     2   ar
     6     2     3   ar
     7     3     4   ar
     8     4     5   ar
     9     5     6   ar
    10     6     7   ar
    11     7    22    1
    12    22    23    2
    13    22    24   am
    14    24    26    1
    15    26    27    1
    16    26    28    1
    17    28    29    1
    18    29    30    1
    19    29    31    1
    20     7     8   ar
    21     8     9   ar
    22    14    15   ar
    23    15    16   ar
    24    16    17   ar
    25    17    18   ar
    26    18    19    1
    27    18    20   ar
    28    20    21   ar
    29    21    12   ar
    30     9     1   ar
    31    21    15   ar
    32     8     4    1
    33    31    26    1
    34    24    25    1
    35    30    32    1
    36    30    33    1
    37     9    10    1
@<TRIPOS>MOLECULE
*****
 33 37 0 0 0
SMALL
GASTEIGER

@<TRIPOS>ATOM
      1 C         138.9914  142.3526  159.8450 C.ar    1  UNL1        0.0957
      2 C         138.4563  140.9684  160.0624 C.ar    1  UNL1        0.1191
      3 N         137.6729  140.2883  158.9790 N.ar    1  UNL1       -0.2223
      4 C         137.4246  140.9926  157.6781 C.ar    1  UNL1        0.1784
      5 N         136.6927  140.5782  156.4361 N.ar    1  UNL1       -0.2236
      6 C         136.7755  141.7063  155.4510 C.ar    1  UNL1        0.1066
      7 C         137.5586  142.8180  156.0842 C.ar    1  UNL1        0.0910
      8 C         137.9597  142.3769  157.4606 C.ar    1  UNL1        0.0988
      9 N         138.7432  143.0569  158.5440 N.ar    1  UNL1       -0.3481
     10 H         139.0944  143.9655  158.4013 H       1  UNL1        0.1661
     11 C         142.9735  144.4821  162.5817 C.3     1  UNL1        0.1537
     12 N         141.6052  144.0114  162.1863 N.ar    1  UNL1       -0.2487
     13 N         141.2463  143.3229  160.9029 N.ar    1  UNL1       -0.1677
     14 C         139.7749  143.0327  160.9284 C.ar    1  UNL1        0.1193
     15 C         139.2244  143.5419  162.2275 C.ar    1  UNL1        0.0382
     16 C         137.8392  143.5328  162.8030 C.ar    1  UNL1        0.0054
     17 C         137.5852  144.1288  164.1558 C.ar    1  UNL1        0.0298
     18 C         138.7164  144.7337  164.9333 C.ar    1  UNL1        0.1416
     19 F         138.4624  145.3297  166.2862 F       1  UNL1       -0.2041
     20 C         140.1016  144.7427  164.3578 C.ar    1  UNL1        0.0484
     21 C         140.3556  144.1468  163.0050 C.ar    1  UNL1        0.0817
     22 C         137.8835  144.1389  155.4519 C.2     1  UNL1        0.2488
     23 O         136.8502  144.8518  154.6309 O.2     1  UNL1       -0.2700
     24 N         139.2417  144.7469  155.6407 N.am    1  UNL1       -0.3038
     25 H         139.9199  144.2790  156.1796 H       1  UNL1        0.1496
     26 C         139.5665  146.0678  155.0085 C.3     1  UNL1        0.0596
     27 C         140.2379  145.3579  153.8703 C.3     1  UNL1        0.0197
     28 C         138.8951  146.7776  156.1466 C.3     1  UNL1        0.0336
     29 C         139.2200  148.0986  155.5143 C.3     1  UNL1        0.0540
     30 N         138.9749  149.5346  155.8720 N.3     1  UNL1       -0.3221
     31 C         139.8913  147.3887  154.3762 C.3     1  UNL1        0.0336
     32 H         139.3710  150.1370  155.1505 H       1  UNL1        0.1188
     33 H         139.4162  149.7418  156.7680 H       1  UNL1        0.1188
@<TRIPOS>BOND
     1    11    12    1
     2    12    13   ar
     3    13    14   ar
     4    14     1    1
     5     1     2   ar
     6     2     3   ar
     7     3     4   ar
     8     4     5   ar
     9     5     6   ar
    10     6     7   ar
    11     7    22    1
    12    22    23    2
    13    22    24   am
    14    24    26    1
    15    26    27    1
    16    26    28    1
    17    28    29    1
    18    29    30    1
    19    29    31    1
    20     7     8   ar
    21     8     9   ar
    22    14    15   ar
    23    15    16   ar
    24    16    17   ar
    25    17    18   ar
    26    18    19    1
    27    18    20   ar
    28    20    21   ar
    29    21    12   ar
    30     9     1   ar
    31    21    15   ar
    32     8     4    1
    33    31    26    1
    34    24    25    1
    35    30    32    1
    36    30    33    1
    37     9    10    1
@<TRIPOS>MOLECULE
*****
 33 37 0 0 0
SMALL
GASTEIGER

@<TRIPOS>ATOM
      1 C         142.2952  140.7012  162.6840 C.ar    1  UNL1        0.0957
      2 C         143.3761  139.7403  162.2867 C.ar    1  UNL1        0.1191
      3 N         144.0151  138.8609  163.3203 N.ar    1  UNL1       -0.2223
      4 C         143.5732  138.9425  164.7514 C.ar    1  UNL1        0.1784
      5 N         144.0154  138.2076  165.9819 N.ar    1  UNL1       -0.2236
      6 C         143.2078  138.7143  167.1399 C.ar    1  UNL1        0.1066
      7 C         142.2664  139.7625  166.6250 C.ar    1  UNL1        0.0910
      8 C         142.4922  139.9035  165.1488 C.ar    1  UNL1        0.0988
      9 N         141.8532  140.7829  164.1152 N.ar    1  UNL1       -0.3481
     10 H         141.1437  141.4136  164.3761 H       1  UNL1        0.1661
     11 C         140.2991  142.4521  158.1200 C.3     1  UNL1        0.1537
     12 N         140.7387  142.3854  159.5526 N.ar    1  UNL1       -0.2487
     13 N         141.3871  141.2101  160.2220 N.ar    1  UNL1       -0.1677
     14 C         141.6562  141.5806  161.6504 C.ar    1  UNL1        0.1193
     15 C         141.1740  142.9849  161.8637 C.ar    1  UNL1        0.0382
     16 C         141.1781  143.8750  163.0711 C.ar    1  UNL1        0.0054
     17 C         140.6152  145.2624  162.9819 C.ar    1  UNL1        0.0298
     18 C         140.0481  145.7598  161.6853 C.ar    1  UNL1        0.1416
     19 F         139.4851  147.1474  161.5961 F       1  UNL1       -0.2041
     20 C         140.0440  144.8698  160.4780 C.ar    1  UNL1        0.0484
     21 C         140.6070  143.4823  160.5672 C.ar    1  UNL1        0.0817
     22 C         141.2734  140.5342  167.4427 C.2     1  UNL1        0.2488
     23 O         140.0078  141.0332  166.8109 O.2     1  UNL1       -0.2700
     24 N         141.5461  140.8068  168.8923 N.am    1  UNL1       -0.3038
     25 H         142.3767  140.4792  169.3070 H       1  UNL1        0.1496
     26 C         140.5532  141.5784  169.7100 C.3     1  UNL1        0.0596
     27 C         139.9011  140.2944  170.1300 C.3     1  UNL1        0.0197
     28 C         141.2052  142.8623  169.2901 C.3     1  UNL1        0.0336
     29 C         140.2122  143.6341  170.1078 C.3     1  UNL1        0.0540
     30 N         139.9711  145.0876  170.3891 N.3     1  UNL1       -0.3221
     31 C         139.5602  142.3501  170.5277 C.3     1  UNL1        0.0336
     32 H         139.1708  145.1848  171.0139 H       1  UNL1        0.1188
     33 H         139.7808  145.5762  169.5142 H       1  UNL1        0.1188
@<TRIPOS>BOND
     1    11    12    1
     2    12    13   ar
     3    13    14   ar
     4    14     1    1
     5     1     2   ar
     6     2     3   ar
     7     3     4   ar
     8     4     5   ar
     9     5     6   ar
    10     6     7   ar
    11     7    22    1
    12    22    23    2
    13    22    24   am
    14    24    26    1
    15    26    27    1
    16    26    28    1
    17    28    29    1
    18    29    30    1
    19    29    31    1
    20     7     8   ar
    21     8     9   ar
    22    14    15   ar
    23    15    16   ar
    24    16    17   ar
    25    17    18   ar
    26    18    19    1
    27    18    20   ar
    28    20    21   ar
    29    21    12   ar
    30     9     1   ar
    31    21    15   ar
    32     8     4    1
    33    31    26    1
    34    24    25    1
    35    30    32    1
    36    30    33    1
    37     9    10    1
@<TRIPOS>MOLECULE
*****
 33 37 0 0 0
SMALL
GASTEIGER

@<TRIPOS>ATOM
      1 C         139.3151  139.2004  165.1031 C.ar    1  UNL1        0.0957
      2 C         139.1705  137.7276  164.8589 C.ar    1  UNL1        0.1191
      3 N         138.8994  137.2200  163.4737 N.ar    1  UNL1       -0.2223
      4 C         138.7730  138.1853  162.3326 C.ar    1  UNL1        0.1784
      5 N         138.5101  137.9815  160.8699 N.ar    1  UNL1       -0.2236
      6 C         138.4922  139.3284  160.2101 C.ar    1  UNL1        0.1066
      7 C         138.7440  140.3647  161.2649 C.ar    1  UNL1        0.0910
      8 C         138.9176  139.6582  162.5767 C.ar    1  UNL1        0.0988
      9 N         139.1886  140.1658  163.9619 N.ar    1  UNL1       -0.3481
     10 H         139.2836  141.1325  164.1221 H       1  UNL1        0.1661
     11 C         138.8221  140.2402  170.2564 C.3     1  UNL1        0.1537
     12 N         139.3595  140.1860  168.8570 N.ar    1  UNL1       -0.2487
     13 N         138.7039  139.5158  167.6861 N.ar    1  UNL1       -0.1677
     14 C         139.5861  139.7080  166.4883 C.ar    1  UNL1        0.1193
     15 C         140.7870  140.4970  166.9189 C.ar    1  UNL1        0.0382
     16 C         141.9899  140.9846  166.1671 C.ar    1  UNL1        0.0054
     17 C         143.0528  141.7676  166.8793 C.ar    1  UNL1        0.0298
     18 C         142.9127  142.0630  168.3432 C.ar    1  UNL1        0.1416
     19 F         143.9757  142.8460  169.0554 F       1  UNL1       -0.2041
     20 C         141.7098  141.5754  169.0950 C.ar    1  UNL1        0.0484
     21 C         140.6470  140.7924  168.3829 C.ar    1  UNL1        0.0817
     22 C         138.8107  141.8472  161.0463 C.2     1  UNL1        0.2488
     23 O         137.6407  142.7123  161.4107 O.2     1  UNL1       -0.2700
     24 N         140.0472  142.4645  160.4634 N.am    1  UNL1       -0.3038
     25 H         140.8151  141.8967  160.2242 H       1  UNL1        0.1496
     26 C         140.1138  143.9470  160.2448 C.3     1  UNL1        0.0596
     27 C         139.9946  143.7342  158.7647 C.3     1  UNL1        0.0197
     28 C         140.2329  144.1599  161.7248 C.3     1  UNL1        0.0336
     29 C         140.2995  145.6424  161.5063 C.3     1  UNL1        0.0540
     30 N         140.4308  146.8412  162.3983 N.3     1  UNL1       -0.3221
     31 C         140.1803  145.4296  160.0263 C.3     1  UNL1        0.0336
     32 H         140.4367  147.6885  161.8304 H       1  UNL1        0.1188
     33 H         141.3019  146.7791  162.9254 H       1  UNL1        0.1188
@<TRIPOS>BOND
     1    11    12    1
     2    12    13   ar
     3    13    14   ar
     4    14     1    1
     5     1     2   ar
     6     2     3   ar
     7     3     4   ar
     8     4     5   ar
     9     5     6   ar
    10     6     7   ar
    11     7    22    1
    12    22    23    2
    13    22    24   am
    14    24    26    1
    15    26    27    1
    16    26    28    1
    17    28    29    1
    18    29    30    1
    19    29    31    1
    20     7     8   ar
    21     8     9   ar
    22    14    15   ar
    23    15    16   ar
    24    16    17   ar
    25    17    18   ar
    26    18    19    1
    27    18    20   ar
    28    20    21   ar
    29    21    12   ar
    30     9     1   ar
    31    21    15   ar
    32     8     4    1
    33    31    26    1
    34    24    25    1
    35    30    32    1
    36    30    33    1
    37     9    10    1
@<TRIPOS>MOLECULE
*****
 33 37 0 0 0
SMALL
GASTEIGER

@<TRIPOS>ATOM
      1 C         141.6811  139.7106  160.2625 C.ar    1  UNL1        0.0957
      2 C         140.3807  140.4549  160.1922 C.ar    1  UNL1        0.1191
      3 N         139.4096  140.1653  159.0864 N.ar    1  UNL1       -0.2223
      4 C         139.7387  139.1314  158.0507 C.ar    1  UNL1        0.1784
      5 N         138.9844  138.6347  156.8531 N.ar    1  UNL1       -0.2236
      6 C         139.8185  137.5834  156.1832 C.ar    1  UNL1        0.1066
      7 C         141.0884  137.4303  156.9667 C.ar    1  UNL1        0.0910
      8 C         141.0391  138.3870  158.1209 C.ar    1  UNL1        0.0988
      9 N         142.0103  138.6766  159.2268 N.ar    1  UNL1       -0.3481
     10 H         142.8637  138.1880  159.2729 H       1  UNL1        0.1661
     11 C         145.6783  141.7824  163.0213 C.3     1  UNL1        0.1537
     12 N         144.4895  140.9524  162.6364 N.ar    1  UNL1       -0.2487
     13 N         143.7778  140.9903  161.3166 N.ar    1  UNL1       -0.1677
     14 C         142.6522  140.0001  161.3684 C.ar    1  UNL1        0.1193
     15 C         142.6683  139.3503  162.7203 C.ar    1  UNL1        0.0382
     16 C         141.7957  138.2987  163.3388 C.ar    1  UNL1        0.0054
     17 C         142.0586  137.8357  164.7411 C.ar    1  UNL1        0.0298
     18 C         143.1942  138.4242  165.5248 C.ar    1  UNL1        0.1416
     19 F         143.4571  137.9612  166.9272 F       1  UNL1       -0.2041
     20 C         144.0668  139.4758  164.9062 C.ar    1  UNL1        0.0484
     21 C         143.8039  139.9388  163.5040 C.ar    1  UNL1        0.0817
     22 C         142.2106  136.4861  156.6514 C.2     1  UNL1        0.2488
     23 O         143.6122  137.0042  156.5208 O.2     1  UNL1       -0.2700
     24 N         141.9312  135.0240  156.4668 N.am    1  UNL1       -0.3038
     25 H         141.0113  134.6840  156.5526 H       1  UNL1        0.1496
     26 C         143.0534  134.0800  156.1515 C.3     1  UNL1        0.0596
     27 C         142.6961  134.1414  154.6959 C.3     1  UNL1        0.0197
     28 C         143.4106  134.0186  157.6070 C.3     1  UNL1        0.0336
     29 C         144.5329  133.0745  157.2918 C.3     1  UNL1        0.0540
     30 N         145.5790  132.3635  158.0980 N.3     1  UNL1       -0.3221
     31 C         144.1756  133.1359  155.8363 C.3     1  UNL1        0.0336
     32 H         146.1629  131.8022  157.4780 H       1  UNL1        0.1188
     33 H         145.1270  131.7561  158.7815 H       1  UNL1        0.1188
@<TRIPOS>BOND
     1    11    12    1
     2    12    13   ar
     3    13    14   ar
     4    14     1    1
     5     1     2   ar
     6     2     3   ar
     7     3     4   ar
     8     4     5   ar
     9     5     6   ar
    10     6     7   ar
    11     7    22    1
    12    22    23    2
    13    22    24   am
    14    24    26    1
    15    26    27    1
    16    26    28    1
    17    28    29    1
    18    29    30    1
    19    29    31    1
    20     7     8   ar
    21     8     9   ar
    22    14    15   ar
    23    15    16   ar
    24    16    17   ar
    25    17    18   ar
    26    18    19    1
    27    18    20   ar
    28    20    21   ar
    29    21    12   ar
    30     9     1   ar
    31    21    15   ar
    32     8     4    1
    33    31    26    1
    34    24    25    1
    35    30    32    1
    36    30    33    1
    37     9    10    1
@<TRIPOS>MOLECULE
*****
 33 37 0 0 0
SMALL
GASTEIGER

@<TRIPOS>ATOM
      1 C         139.1386  142.7797  164.3468 C.ar    1  UNL1        0.0957
      2 C         138.2567  143.9828  164.5037 C.ar    1  UNL1        0.1191
      3 N         138.3280  145.1004  163.5057 N.ar    1  UNL1       -0.2223
      4 C         139.2813  145.0148  162.3508 C.ar    1  UNL1        0.1784
      5 N         139.5713  145.9532  161.2171 N.ar    1  UNL1       -0.2236
      6 C         140.6326  145.3302  160.3595 C.ar    1  UNL1        0.1066
      7 C         140.9984  144.0066  160.9631 C.ar    1  UNL1        0.0910
      8 C         140.1632  143.8117  162.1938 C.ar    1  UNL1        0.0988
      9 N         140.0919  142.6942  163.1918 N.ar    1  UNL1       -0.3481
     10 H         140.6708  141.9045  163.0888 H       1  UNL1        0.1661
     11 C         137.8380  138.2516  166.7310 C.3     1  UNL1        0.1537
     12 N         138.4694  139.5808  166.4407 N.ar    1  UNL1       -0.2487
     13 N         138.2356  140.4201  165.2197 N.ar    1  UNL1       -0.1677
     14 C         139.0672  141.6622  165.3448 C.ar    1  UNL1        0.1193
     15 C         139.8151  141.5905  166.6431 C.ar    1  UNL1        0.0382
     16 C         140.7848  142.5303  167.2960 C.ar    1  UNL1        0.0054
     17 C         141.3850  142.1838  168.6263 C.ar    1  UNL1        0.0298
     18 C         141.0155  140.8974  169.3036 C.ar    1  UNL1        0.1416
     19 F         141.6158  140.5509  170.6339 F       1  UNL1       -0.2041
     20 C         140.0458  139.9576  168.6507 C.ar    1  UNL1        0.0484
     21 C         139.4456  140.3041  167.3204 C.ar    1  UNL1        0.0817
     22 C         142.0200  143.0465  160.4297 C.2     1  UNL1        0.2488
     23 O         143.4487  143.4782  160.2799 O.2     1  UNL1       -0.2700
     24 N         141.6129  141.6547  160.0461 N.am    1  UNL1       -0.3038
     25 H         140.6752  141.3713  160.1444 H       1  UNL1        0.1496
     26 C         142.6346  140.6946  159.5128 C.3     1  UNL1        0.0596
     27 C         142.4239  141.2382  158.1306 C.3     1  UNL1        0.0197
     28 C         142.8453  140.1510  160.8948 C.3     1  UNL1        0.0336
     29 C         143.8669  139.1909  160.3614 C.3     1  UNL1        0.0540
     30 N         144.7384  138.1276  160.9615 N.3     1  UNL1       -0.3221
     31 C         143.6563  139.7345  158.9794 C.3     1  UNL1        0.0336
     32 H         145.3035  137.6978  160.2292 H       1  UNL1        0.1188
     33 H         144.1536  137.4168  161.4010 H       1  UNL1        0.1188
@<TRIPOS>BOND
     1    11    12    1
     2    12    13   ar
     3    13    14   ar
     4    14     1    1
     5     1     2   ar
     6     2     3   ar
     7     3     4   ar
     8     4     5   ar
     9     5     6   ar
    10     6     7   ar
    11     7    22    1
    12    22    23    2
    13    22    24   am
    14    24    26    1
    15    26    27    1
    16    26    28    1
    17    28    29    1
    18    29    30    1
    19    29    31    1
    20     7     8   ar
    21     8     9   ar
    22    14    15   ar
    23    15    16   ar
    24    16    17   ar
    25    17    18   ar
    26    18    19    1
    27    18    20   ar
    28    20    21   ar
    29    21    12   ar
    30     9     1   ar
    31    21    15   ar
    32     8     4    1
    33    31    26    1
    34    24    25    1
    35    30    32    1
    36    30    33    1
    37     9    10    1
@<TRIPOS>MOLECULE
*****
 33 37 0 0 0
SMALL
GASTEIGER

@<TRIPOS>ATOM
      1 C         140.4320  143.2525  165.2629 C.ar    1  UNL1        0.0957
      2 C         139.2479  144.1489  165.4730 C.ar    1  UNL1        0.1191
      3 N         138.7604  145.0220  164.3549 N.ar    1  UNL1       -0.2223
      4 C         139.4571  144.9987  163.0267 C.ar    1  UNL1        0.1784
      5 N         139.2061  145.7423  161.7484 N.ar    1  UNL1       -0.2236
      6 C         140.2351  145.3054  160.7483 C.ar    1  UNL1        0.1066
      7 C         141.1221  144.2918  161.4085 C.ar    1  UNL1        0.0910
      8 C         140.6413  144.1022  162.8166 C.ar    1  UNL1        0.0988
      9 N         141.1287  143.2291  163.9347 N.ar    1  UNL1       -0.3481
     10 H         141.9059  142.6408  163.7968 H       1  UNL1        0.1661
     11 C         141.3586  141.3240  170.0902 C.3     1  UNL1        0.1537
     12 N         141.3454  141.4930  168.5998 N.ar    1  UNL1       -0.2487
     13 N         140.6813  142.6059  167.8446 N.ar    1  UNL1       -0.1677
     14 C         140.9195  142.3794  166.3810 C.ar    1  UNL1        0.1193
     15 C         141.7306  141.1265  166.2318 C.ar    1  UNL1        0.0382
     16 C         142.2636  140.4137  165.0243 C.ar    1  UNL1        0.0054
     17 C         143.0597  139.1531  165.1883 C.ar    1  UNL1        0.0298
     18 C         143.3230  138.6053  166.5596 C.ar    1  UNL1        0.1416
     19 F         144.1192  137.3446  166.7235 F       1  UNL1       -0.2041
     20 C         142.7900  139.3180  167.7670 C.ar    1  UNL1        0.0484
     21 C         141.9939  140.5786  167.6031 C.ar    1  UNL1        0.0817
     22 C         142.2856  143.5908  160.7722 C.2     1  UNL1        0.2488
     23 O         143.6723  143.8069  161.3018 O.2     1  UNL1       -0.2700
     24 N         142.0625  142.6738  159.6063 N.am    1  UNL1       -0.3038
     25 H         141.1524  142.5319  159.2588 H       1  UNL1        0.1496
     26 C         143.2260  141.9728  158.9701 C.3     1  UNL1        0.0596
     27 C         142.9910  140.7822  159.8518 C.3     1  UNL1        0.0197
     28 C         143.4611  143.1634  158.0885 C.3     1  UNL1        0.0336
     29 C         144.6248  142.4624  157.4522 C.3     1  UNL1        0.0540
     30 N         145.6138  142.8086  156.3789 N.3     1  UNL1       -0.3221
     31 C         144.3897  141.2719  158.3338 C.3     1  UNL1        0.0336
     32 H         146.2588  142.0296  156.2468 H       1  UNL1        0.1188
     33 H         146.1366  143.6402  156.6537 H       1  UNL1        0.1188
@<TRIPOS>BOND
     1    11    12    1
     2    12    13   ar
     3    13    14   ar
     4    14     1    1
     5     1     2   ar
     6     2     3   ar
     7     3     4   ar
     8     4     5   ar
     9     5     6   ar
    10     6     7   ar
    11     7    22    1
    12    22    23    2
    13    22    24   am
    14    24    26    1
    15    26    27    1
    16    26    28    1
    17    28    29    1
    18    29    30    1
    19    29    31    1
    20     7     8   ar
    21     8     9   ar
    22    14    15   ar
    23    15    16   ar
    24    16    17   ar
    25    17    18   ar
    26    18    19    1
    27    18    20   ar
    28    20    21   ar
    29    21    12   ar
    30     9     1   ar
    31    21    15   ar
    32     8     4    1
    33    31    26    1
    34    24    25    1
    35    30    32    1
    36    30    33    1
    37     9    10    1
@<TRIPOS>MOLECULE
*****
 33 37 0 0 0
SMALL
GASTEIGER

@<TRIPOS>ATOM
      1 C         140.5067  141.1504  161.6998 C.ar    1  UNL1        0.0957
      2 C         139.8850  140.1186  160.8061 C.ar    1  UNL1        0.1191
      3 N         139.9008  138.6728  161.2055 N.ar    1  UNL1       -0.2223
      4 C         140.5384  138.2588  162.4985 C.ar    1  UNL1        0.1784
      5 N         140.7050  136.9188  163.1517 N.ar    1  UNL1       -0.2236
      6 C         141.4298  137.1224  164.4490 C.ar    1  UNL1        0.1066
      7 C         141.7111  138.5883  164.5978 C.ar    1  UNL1        0.0910
      8 C         141.1602  139.2906  163.3923 C.ar    1  UNL1        0.0988
      9 N         141.1444  140.7364  162.9930 N.ar    1  UNL1       -0.3481
     10 H         141.5525  141.4136  163.5796 H       1  UNL1        0.1661
     11 C         139.6618  146.3624  161.7400 C.3     1  UNL1        0.1537
     12 N         140.1026  144.9919  161.3190 N.ar    1  UNL1       -0.2487
     13 N         139.8926  143.7225  162.0900 N.ar    1  UNL1       -0.1677
     14 C         140.4909  142.5962  161.3005 C.ar    1  UNL1        0.1193
     15 C         141.0708  143.1695  160.0414 C.ar    1  UNL1        0.0382
     16 C         141.7863  142.5346  158.8861 C.ar    1  UNL1        0.0054
     17 C         142.2618  143.3803  157.7422 C.ar    1  UNL1        0.0298
     18 C         142.0218  144.8609  157.7536 C.ar    1  UNL1        0.1416
     19 F         142.4974  145.7067  156.6096 F       1  UNL1       -0.2041
     20 C         141.3063  145.4958  158.9090 C.ar    1  UNL1        0.0484
     21 C         140.8308  144.6501  160.0529 C.ar    1  UNL1        0.0817
     22 C         142.4191  139.2378  165.7498 C.2     1  UNL1        0.2488
     23 O         143.8412  138.8734  166.0578 O.2     1  UNL1       -0.2700
     24 N         141.7049  140.2515  166.5937 N.am    1  UNL1       -0.3038
     25 H         140.7715  140.4906  166.3915 H       1  UNL1        0.1496
     26 C         142.4129  140.9009  167.7456 C.3     1  UNL1        0.0596
     27 C         142.7956  142.0511  166.8620 C.3     1  UNL1        0.0197
     28 C         142.0302  139.7509  168.6292 C.3     1  UNL1        0.0336
     29 C         142.7382  140.4003  169.7812 C.3     1  UNL1        0.0540
     30 N         142.9682  140.0463  171.2206 N.3     1  UNL1       -0.3221
     31 C         143.1209  141.5504  168.8976 C.3     1  UNL1        0.0336
     32 H         143.5148  140.7818  171.6685 H       1  UNL1        0.1188
     33 H         143.4759  139.1634  171.2766 H       1  UNL1        0.1188
@<TRIPOS>BOND
     1    11    12    1
     2    12    13   ar
     3    13    14   ar
     4    14     1    1
     5     1     2   ar
     6     2     3   ar
     7     3     4   ar
     8     4     5   ar
     9     5     6   ar
    10     6     7   ar
    11     7    22    1
    12    22    23    2
    13    22    24   am
    14    24    26    1
    15    26    27    1
    16    26    28    1
    17    28    29    1
    18    29    30    1
    19    29    31    1
    20     7     8   ar
    21     8     9   ar
    22    14    15   ar
    23    15    16   ar
    24    16    17   ar
    25    17    18   ar
    26    18    19    1
    27    18    20   ar
    28    20    21   ar
    29    21    12   ar
    30     9     1   ar
    31    21    15   ar
    32     8     4    1
    33    31    26    1
    34    24    25    1
    35    30    32    1
    36    30    33    1
    37     9    10    1
@<TRIPOS>MOLECULE
*****
 33 37 0 0 0
SMALL
GASTEIGER

@<TRIPOS>ATOM
      1 C         139.9003  143.6321  159.3576 C.ar    1  UNL1        0.0957
      2 C         139.1610  142.3376  159.1916 C.ar    1  UNL1        0.1191
      3 N         138.4725  142.0279  157.8955 N.ar    1  UNL1       -0.2223
      4 C         138.5233  143.0127  156.7652 C.ar    1  UNL1        0.1784
      5 N         137.9447  142.9834  155.3816 N.ar    1  UNL1       -0.2236
      6 C         138.3264  144.2598  154.6924 C.ar    1  UNL1        0.1066
      7 C         139.1409  145.0780  155.6501 C.ar    1  UNL1        0.0910
      8 C         139.2626  144.3072  156.9311 C.ar    1  UNL1        0.0988
      9 N         139.9511  144.6170  158.2273 N.ar    1  UNL1       -0.3481
     10 H         140.4363  145.4666  158.3361 H       1  UNL1        0.1661
     11 C         143.6498  144.6280  162.9395 C.3     1  UNL1        0.1537
     12 N         142.3122  144.3996  162.3001 N.ar    1  UNL1       -0.2487
     13 N         142.0679  144.0933  160.8522 N.ar    1  UNL1       -0.1677
     14 C         140.5888  143.9418  160.6538 C.ar    1  UNL1        0.1193
     15 C         139.9191  144.1544  161.9790 C.ar    1  UNL1        0.0382
     16 C         138.4770  144.1269  162.3907 C.ar    1  UNL1        0.0054
     17 C         138.1000  144.3824  163.8198 C.ar    1  UNL1        0.0298
     18 C         139.1652  144.6653  164.8374 C.ar    1  UNL1        0.1416
     19 F         138.7882  144.9207  166.2666 F       1  UNL1       -0.2041
     20 C         140.6073  144.6927  164.4257 C.ar    1  UNL1        0.0484
     21 C         140.9842  144.4373  162.9965 C.ar    1  UNL1        0.0817
     22 C         139.7303  146.4297  155.3749 C.2     1  UNL1        0.2488
     23 O         141.0262  146.8276  156.0169 O.2     1  UNL1       -0.2700
     24 N         139.0237  147.3834  154.4578 N.am    1  UNL1       -0.3038
     25 H         138.1731  147.1222  154.0364 H       1  UNL1        0.1496
     26 C         139.6131  148.7350  154.1827 C.3     1  UNL1        0.0596
     27 C         140.3764  148.1662  153.0234 C.3     1  UNL1        0.0197
     28 C         138.8497  149.3038  155.3419 C.3     1  UNL1        0.0336
     29 C         139.4391  150.6555  155.0668 C.3     1  UNL1        0.0540
     30 N         139.3161  152.0135  155.6919 N.3     1  UNL1       -0.3221
     31 C         140.2024  150.0867  153.9076 C.3     1  UNL1        0.0336
     32 H         139.9015  152.6761  155.1834 H       1  UNL1        0.1188
     33 H         139.6195  151.9687  156.6648 H       1  UNL1        0.1188
@<TRIPOS>BOND
     1    11    12    1
     2    12    13   ar
     3    13    14   ar
     4    14     1    1
     5     1     2   ar
     6     2     3   ar
     7     3     4   ar
     8     4     5   ar
     9     5     6   ar
    10     6     7   ar
    11     7    22    1
    12    22    23    2
    13    22    24   am
    14    24    26    1
    15    26    27    1
    16    26    28    1
    17    28    29    1
    18    29    30    1
    19    29    31    1
    20     7     8   ar
    21     8     9   ar
    22    14    15   ar
    23    15    16   ar
    24    16    17   ar
    25    17    18   ar
    26    18    19    1
    27    18    20   ar
    28    20    21   ar
    29    21    12   ar
    30     9     1   ar
    31    21    15   ar
    32     8     4    1
    33    31    26    1
    34    24    25    1
    35    30    32    1
    36    30    33    1
    37     9    10    1
