@<TRIPOS>MOLECULE
*****
 32 34 0 0 0
SMALL
GASTEIGER

@<TRIPOS>ATOM
      1 C         141.9270  139.3799  158.3546 C.3     1  UNL1        0.1102
      2 C         140.8809  138.3194  158.1793 C.3     1  UNL1        0.0296
      3 C         139.6358  138.3486  159.0152 C.3     1  UNL1        0.0730
      4 N         139.4368  139.4385  160.0266 N.3     1  UNL1       -0.2689
      5 C         140.4830  140.4990  160.2019 C.3     1  UNL1        0.0730
      6 C         141.7281  140.4697  159.3660 C.3     1  UNL1        0.0296
      7 C         143.1953  140.1555  158.1546 C.2     1  UNL1        0.3177
      8 O         144.3281  139.5533  157.3774 O.2     1  UNL1       -0.2501
      9 C         144.4738  142.4115  158.3167 C.3     1  UNL1        0.2556
     10 O         143.3308  141.5333  158.7318 O.3     1  UNL1       -0.4444
     11 C         142.5664  138.5595  157.2739 C.3     1  UNL1        0.1002
     12 N         142.4160  137.0670  157.2769 N.am    1  UNL1       -0.3003
     13 C         143.3568  136.2168  156.4756 C.2     1  UNL1        0.2459
     14 O         144.4480  136.8590  155.6714 O.2     1  UNL1       -0.2701
     15 H         141.6998  136.6455  157.8048 H       1  UNL1        0.1498
     16 C         143.2064  134.7243  156.4787 C.ar    1  UNL1        0.0550
     17 C         144.1560  133.8764  157.2718 C.ar    1  UNL1        0.0160
     18 C         144.0056  132.3840  157.2748 C.ar    1  UNL1        0.0587
     19 CL        144.9554  131.5361  158.0680 Cl      1  UNL1       -0.0822
     20 C         142.9055  131.7395  156.4847 C.ar    1  UNL1        0.0228
     21 C         141.9557  132.5874  155.6915 C.ar    1  UNL1        0.0587
     22 CL        140.8556  131.9429  154.9015 Cl      1  UNL1       -0.0822
     23 C         142.1062  134.0798  155.6885 C.ar    1  UNL1        0.0160
     24 C         138.1917  139.4677  160.8625 C.3     1  UNL1        0.1022
     25 C         138.2910  139.4115  162.3581 C.ar    1  UNL1        0.0279
     26 C         138.8745  138.2018  163.0261 C.ar    1  UNL1        0.0001
     27 C         138.9738  138.1456  164.5218 C.ar    1  UNL1       -0.0001
     28 C         138.4896  139.2990  165.3495 C.ar    1  UNL1        0.0031
     29 C         137.9061  140.5087  164.6815 C.ar    1  UNL1        0.0366
     30 C         137.8068  140.5649  163.1859 C.ar    1  UNL1        0.1360
     31 O         137.2233  141.7746  162.5179 O.3     1  UNL1       -0.4717
     32 C         137.9702  143.0754  162.5369 C.3     1  UNL1        0.2525
@<TRIPOS>BOND
     1     9    10    1
     2    10     7    1
     3     7     8    2
     4     7     1    1
     5     1    11    1
     6    11    12    1
     7    12    13   am
     8    13    14    2
     9    13    16    1
    10    16    17   ar
    11    17    18   ar
    12    18    19    1
    13    18    20   ar
    14    20    21   ar
    15    21    22    1
    16    21    23   ar
    17     1     2    1
    18     2     3    1
    19     3     4    1
    20     4    24    1
    21    24    25    1
    22    25    26   ar
    23    26    27   ar
    24    27    28   ar
    25    28    29   ar
    26    29    30   ar
    27    30    31    1
    28    31    32    1
    29     4     5    1
    30     5     6    1
    31     6     1    1
    32    23    16   ar
    33    30    25   ar
    34    12    15    1
@<TRIPOS>MOLECULE
*****
 32 34 0 0 0
SMALL
GASTEIGER

@<TRIPOS>ATOM
      1 C         143.1944  139.2128  159.6491 C.3     1  UNL1        0.1102
      2 C         142.3633  138.0542  160.1146 C.3     1  UNL1        0.0296
      3 C         142.1183  137.8478  161.5800 C.3     1  UNL1        0.0730
      4 N         142.7044  138.8000  162.5799 N.3     1  UNL1       -0.2689
      5 C         143.5355  139.9587  162.1143 C.3     1  UNL1        0.0730
      6 C         143.7806  140.1651  160.6490 C.3     1  UNL1        0.0296
      7 C         143.9081  140.1543  158.7248 C.2     1  UNL1        0.3177
      8 O         144.4393  139.6584  157.4126 O.2     1  UNL1       -0.2501
      9 C         144.7894  142.5371  158.1812 C.3     1  UNL1        0.2556
     10 O         144.0905  141.5917  159.1127 O.3     1  UNL1       -0.4444
     11 C         142.8562  138.5875  158.3283 C.3     1  UNL1        0.1002
     12 N         142.9547  137.1008  158.1551 N.am    1  UNL1       -0.3003
     13 C         142.6607  136.4800  156.8216 C.2     1  UNL1        0.2459
     14 O         142.2683  137.3458  155.6613 O.2     1  UNL1       -0.2701
     15 H         143.2123  136.5325  158.9167 H       1  UNL1        0.1498
     16 C         142.7592  134.9933  156.6484 C.ar    1  UNL1        0.0550
     17 C         141.8052  134.2795  155.7373 C.ar    1  UNL1        0.0160
     18 C         141.9037  132.7928  155.5641 C.ar    1  UNL1        0.0587
     19 CL        140.9496  132.0790  154.6528 Cl      1  UNL1       -0.0822
     20 C         142.9563  132.0198  156.3021 C.ar    1  UNL1        0.0228
     21 C         143.9104  132.7336  157.2134 C.ar    1  UNL1        0.0587
     22 CL        144.9629  131.9607  157.9514 Cl      1  UNL1       -0.0822
     23 C         143.8118  134.2203  157.3865 C.ar    1  UNL1        0.0160
     24 C         142.4594  138.5936  164.0452 C.3     1  UNL1        0.1022
     25 C         141.0775  138.7577  164.6050 C.ar    1  UNL1        0.0279
     26 C         140.1827  137.5632  164.7558 C.ar    1  UNL1        0.0001
     27 C         138.8007  137.7272  165.3156 C.ar    1  UNL1       -0.0001
     28 C         138.3135  139.0856  165.7245 C.ar    1  UNL1        0.0031
     29 C         139.2083  140.2801  165.5737 C.ar    1  UNL1        0.0366
     30 C         140.5902  140.1160  165.0140 C.ar    1  UNL1        0.1360
     31 O         141.4850  141.3105  164.8632 O.3     1  UNL1       -0.4717
     32 C         141.1247  142.4003  163.8974 C.3     1  UNL1        0.2525
@<TRIPOS>BOND
     1     9    10    1
     2    10     7    1
     3     7     8    2
     4     7     1    1
     5     1    11    1
     6    11    12    1
     7    12    13   am
     8    13    14    2
     9    13    16    1
    10    16    17   ar
    11    17    18   ar
    12    18    19    1
    13    18    20   ar
    14    20    21   ar
    15    21    22    1
    16    21    23   ar
    17     1     2    1
    18     2     3    1
    19     3     4    1
    20     4    24    1
    21    24    25    1
    22    25    26   ar
    23    26    27   ar
    24    27    28   ar
    25    28    29   ar
    26    29    30   ar
    27    30    31    1
    28    31    32    1
    29     4     5    1
    30     5     6    1
    31     6     1    1
    32    23    16   ar
    33    30    25   ar
    34    12    15    1
@<TRIPOS>MOLECULE
*****
 32 34 0 0 0
SMALL
GASTEIGER

@<TRIPOS>ATOM
      1 C         142.7369  143.6921  163.6213 C.3     1  UNL1        0.1102
      2 C         141.3065  143.6474  164.0704 C.3     1  UNL1        0.0296
      3 C         140.8699  142.6310  165.0834 C.3     1  UNL1        0.0730
      4 N         141.8637  141.6591  165.6472 N.3     1  UNL1       -0.2689
      5 C         143.2942  141.7038  165.1980 C.3     1  UNL1        0.0730
      6 C         143.7308  142.7203  164.1851 C.3     1  UNL1        0.0296
      7 C         143.9711  144.1267  162.8878 C.2     1  UNL1        0.3177
      8 O         144.3267  145.5821  162.8147 O.2     1  UNL1       -0.2501
      9 C         144.6481  142.7664  160.7804 C.3     1  UNL1        0.2556
     10 O         144.8497  143.1060  162.2275 O.3     1  UNL1       -0.4444
     11 C         142.1717  144.8148  162.8028 C.3     1  UNL1        0.1002
     12 N         142.2717  144.7765  161.3066 N.am    1  UNL1       -0.3003
     13 C         141.0674  145.0831  160.4664 C.2     1  UNL1        0.2459
     14 O         139.7634  145.4281  161.1223 O.2     1  UNL1       -0.2701
     15 H         143.1276  144.5500  160.8761 H       1  UNL1        0.1498
     16 C         141.1674  145.0447  158.9702 C.ar    1  UNL1        0.0550
     17 C         142.1766  144.1538  158.3086 C.ar    1  UNL1        0.0160
     18 C         142.2765  144.1155  156.8124 C.ar    1  UNL1        0.0587
     19 CL        143.2858  143.2245  156.1507 Cl      1  UNL1       -0.0822
     20 C         141.3673  144.9680  155.9778 C.ar    1  UNL1        0.0228
     21 C         140.3581  145.8589  156.6395 C.ar    1  UNL1        0.0587
     22 CL        139.4488  146.7114  155.8050 Cl      1  UNL1       -0.0822
     23 C         140.2581  145.8973  158.1357 C.ar    1  UNL1        0.0160
     24 C         141.4271  140.6426  166.6601 C.3     1  UNL1        0.1022
     25 C         140.4276  139.5896  166.2832 C.ar    1  UNL1        0.0279
     26 C         139.0439  139.6277  166.8614 C.ar    1  UNL1        0.0001
     27 C         138.0443  138.5746  166.4845 C.ar    1  UNL1       -0.0001
     28 C         138.4284  137.4836  165.5294 C.ar    1  UNL1        0.0031
     29 C         139.8120  137.4456  164.9513 C.ar    1  UNL1        0.0366
     30 C         140.8115  138.4986  165.3282 C.ar    1  UNL1        0.1360
     31 O         142.1951  138.4605  164.7500 O.3     1  UNL1       -0.4717
     32 C         142.3852  138.3272  163.2680 C.3     1  UNL1        0.2525
@<TRIPOS>BOND
     1     9    10    1
     2    10     7    1
     3     7     8    2
     4     7     1    1
     5     1    11    1
     6    11    12    1
     7    12    13   am
     8    13    14    2
     9    13    16    1
    10    16    17   ar
    11    17    18   ar
    12    18    19    1
    13    18    20   ar
    14    20    21   ar
    15    21    22    1
    16    21    23   ar
    17     1     2    1
    18     2     3    1
    19     3     4    1
    20     4    24    1
    21    24    25    1
    22    25    26   ar
    23    26    27   ar
    24    27    28   ar
    25    28    29   ar
    26    29    30   ar
    27    30    31    1
    28    31    32    1
    29     4     5    1
    30     5     6    1
    31     6     1    1
    32    23    16   ar
    33    30    25   ar
    34    12    15    1
@<TRIPOS>MOLECULE
*****
 32 34 0 0 0
SMALL
GASTEIGER

@<TRIPOS>ATOM
      1 C         142.0567  144.0230  163.4355 C.3     1  UNL1        0.1102
      2 C         140.7369  144.4826  163.9803 C.3     1  UNL1        0.0296
      3 C         140.1106  143.7610  165.1366 C.3     1  UNL1        0.0730
      4 N         140.8042  142.5798  165.7481 N.3     1  UNL1       -0.2689
      5 C         142.1240  142.1203  165.2032 C.3     1  UNL1        0.0730
      6 C         142.7502  142.8419  164.0469 C.3     1  UNL1        0.0296
      7 C         143.2836  143.9669  162.5743 C.2     1  UNL1        0.3177
      8 O         144.2890  145.0789  162.6279 O.2     1  UNL1       -0.2501
      9 C         144.8058  142.6570  160.9260 C.3     1  UNL1        0.2556
     10 O         143.5052  142.7990  161.6597 O.3     1  UNL1       -0.4444
     11 C         141.7892  145.1847  162.5250 C.3     1  UNL1        0.1002
     12 N         141.9846  145.0382  161.0450 N.am    1  UNL1       -0.3003
     13 C         140.8818  145.4177  160.1017 C.2     1  UNL1        0.2459
     14 O         139.5836  145.9437  160.6383 O.2     1  UNL1       -0.2701
     15 H         142.8367  144.6929  160.6928 H       1  UNL1        0.1498
     16 C         141.0772  145.2712  158.6217 C.ar    1  UNL1        0.0550
     17 C         142.1006  144.3111  158.0917 C.ar    1  UNL1        0.0160
     18 C         142.2960  144.1646  156.6117 C.ar    1  UNL1        0.0587
     19 CL        143.3195  143.2045  156.0818 Cl      1  UNL1       -0.0822
     20 C         141.4680  144.9781  155.6617 C.ar    1  UNL1        0.0228
     21 C         140.4446  145.9382  156.1917 C.ar    1  UNL1        0.0587
     22 CL        139.6166  146.7518  155.2417 Cl      1  UNL1       -0.0822
     23 C         140.2491  146.0848  157.6717 C.ar    1  UNL1        0.0160
     24 C         140.1779  141.8582  166.9044 C.3     1  UNL1        0.1022
     25 C         141.0330  141.3708  168.0363 C.ar    1  UNL1        0.0279
     26 C         141.2633  142.2456  169.2329 C.ar    1  UNL1        0.0001
     27 C         142.1184  141.7583  170.3649 C.ar    1  UNL1       -0.0001
     28 C         142.7433  140.3961  170.3003 C.ar    1  UNL1        0.0031
     29 C         142.5130  139.5214  169.1036 C.ar    1  UNL1        0.0366
     30 C         141.6579  140.0088  167.9717 C.ar    1  UNL1        0.1360
     31 O         141.4277  139.1340  166.7751 O.3     1  UNL1       -0.4717
     32 C         142.5946  138.6332  165.9766 C.3     1  UNL1        0.2525
@<TRIPOS>BOND
     1     9    10    1
     2    10     7    1
     3     7     8    2
     4     7     1    1
     5     1    11    1
     6    11    12    1
     7    12    13   am
     8    13    14    2
     9    13    16    1
    10    16    17   ar
    11    17    18   ar
    12    18    19    1
    13    18    20   ar
    14    20    21   ar
    15    21    22    1
    16    21    23   ar
    17     1     2    1
    18     2     3    1
    19     3     4    1
    20     4    24    1
    21    24    25    1
    22    25    26   ar
    23    26    27   ar
    24    27    28   ar
    25    28    29   ar
    26    29    30   ar
    27    30    31    1
    28    31    32    1
    29     4     5    1
    30     5     6    1
    31     6     1    1
    32    23    16   ar
    33    30    25   ar
    34    12    15    1
@<TRIPOS>MOLECULE
*****
 32 34 0 0 0
SMALL
GASTEIGER

@<TRIPOS>ATOM
      1 C         141.5146  139.5296  158.9790 C.3     1  UNL1        0.1102
      2 C         140.3709  139.8711  158.0705 C.3     1  UNL1        0.0296
      3 C         139.2184  140.6803  158.5872 C.3     1  UNL1        0.0730
      4 N         139.2097  141.1479  160.0125 N.3     1  UNL1       -0.2689
      5 C         140.3533  140.8064  160.9209 C.3     1  UNL1        0.0730
      6 C         141.5058  139.9973  160.4042 C.3     1  UNL1        0.0296
      7 C         142.8186  138.9565  159.4492 C.2     1  UNL1        0.3177
      8 O         144.1059  139.4152  158.8307 O.2     1  UNL1       -0.2501
      9 C         144.0703  137.7286  161.3664 C.3     1  UNL1        0.2556
     10 O         142.8354  137.9248  160.5379 O.3     1  UNL1       -0.4444
     11 C         141.9762  138.8629  157.7171 C.3     1  UNL1        0.1002
     12 N         141.9543  137.3671  157.6078 N.am    1  UNL1       -0.3003
     13 C         142.9740  136.6617  156.7636 C.2     1  UNL1        0.2459
     14 O         144.0157  137.4522  156.0287 O.2     1  UNL1       -0.2701
     15 H         141.2706  136.8482  158.0901 H       1  UNL1        0.1498
     16 C         142.9521  135.1659  156.6543 C.ar    1  UNL1        0.0550
     17 C         141.9121  134.4907  155.8102 C.ar    1  UNL1        0.0160
     18 C         141.8901  132.9948  155.7009 C.ar    1  UNL1        0.0587
     19 CL        140.8500  132.3197  154.8568 Cl      1  UNL1       -0.0822
     20 C         142.9082  132.1741  156.4357 C.ar    1  UNL1        0.0228
     21 C         143.9483  132.8493  157.2798 C.ar    1  UNL1        0.0587
     22 CL        144.9663  132.0286  158.0146 Cl      1  UNL1       -0.0822
     23 C         143.9702  134.3451  157.3891 C.ar    1  UNL1        0.0160
     24 C         138.0572  141.9571  160.5292 C.3     1  UNL1        0.1022
     25 C         138.1356  142.5931  161.8854 C.ar    1  UNL1        0.0279
     26 C         137.5601  141.8890  163.0783 C.ar    1  UNL1        0.0001
     27 C         137.6385  142.5249  164.4346 C.ar    1  UNL1       -0.0001
     28 C         138.2924  143.8650  164.5980 C.ar    1  UNL1        0.0031
     29 C         138.8679  144.5691  163.4050 C.ar    1  UNL1        0.0366
     30 C         138.7895  143.9331  162.0488 C.ar    1  UNL1        0.1360
     31 O         139.3650  144.6372  160.8558 O.3     1  UNL1       -0.4717
     32 C         140.5316  145.5651  161.0234 C.3     1  UNL1        0.2525
@<TRIPOS>BOND
     1     9    10    1
     2    10     7    1
     3     7     8    2
     4     7     1    1
     5     1    11    1
     6    11    12    1
     7    12    13   am
     8    13    14    2
     9    13    16    1
    10    16    17   ar
    11    17    18   ar
    12    18    19    1
    13    18    20   ar
    14    20    21   ar
    15    21    22    1
    16    21    23   ar
    17     1     2    1
    18     2     3    1
    19     3     4    1
    20     4    24    1
    21    24    25    1
    22    25    26   ar
    23    26    27   ar
    24    27    28   ar
    25    28    29   ar
    26    29    30   ar
    27    30    31    1
    28    31    32    1
    29     4     5    1
    30     5     6    1
    31     6     1    1
    32    23    16   ar
    33    30    25   ar
    34    12    15    1
@<TRIPOS>MOLECULE
*****
 32 34 0 0 0
SMALL
GASTEIGER

@<TRIPOS>ATOM
      1 C         140.7106  144.3256  162.3564 C.3     1  UNL1        0.1102
      2 C         139.2802  144.4233  161.9156 C.3     1  UNL1        0.0296
      3 C         138.2658  143.4504  162.4394 C.3     1  UNL1        0.0730
      4 N         138.6819  142.3798  163.4042 N.3     1  UNL1       -0.2689
      5 C         140.1122  142.2821  163.8450 C.3     1  UNL1        0.0730
      6 C         141.1266  143.2550  163.3212 C.3     1  UNL1        0.0296
      7 C         142.1729  144.6373  162.4767 C.2     1  UNL1        0.3177
      8 O         143.1381  144.1124  161.4555 O.2     1  UNL1       -0.2501
      9 C         143.9763  145.1434  164.2772 C.3     1  UNL1        0.2556
     10 O         142.6700  145.4739  163.6182 O.3     1  UNL1       -0.4444
     11 C         140.8024  145.5045  161.4335 C.3     1  UNL1        0.1002
     12 N         140.0370  145.5084  160.1434 N.am    1  UNL1       -0.3003
     13 C         140.7704  145.4537  158.8361 C.2     1  UNL1        0.2459
     14 O         142.2692  145.3951  158.8188 O.2     1  UNL1       -0.2701
     15 H         139.0533  145.5469  160.1548 H       1  UNL1        0.1498
     16 C         140.0050  145.4577  157.5460 C.ar    1  UNL1        0.0550
     17 C         139.8502  146.7318  156.7697 C.ar    1  UNL1        0.0160
     18 C         139.0848  146.7357  155.4797 C.ar    1  UNL1        0.0587
     19 CL        138.9300  148.0099  154.7034 Cl      1  UNL1       -0.0822
     20 C         138.4743  145.4656  154.9660 C.ar    1  UNL1        0.0228
     21 C         138.6291  144.1914  155.7423 C.ar    1  UNL1        0.0587
     22 CL        138.0186  142.9213  155.2286 Cl      1  UNL1       -0.0822
     23 C         139.3945  144.1875  157.0323 C.ar    1  UNL1        0.0160
     24 C         137.6675  141.4069  163.9281 C.3     1  UNL1        0.1022
     25 C         138.0897  140.0226  164.3223 C.ar    1  UNL1        0.0279
     26 C         138.0333  139.6025  165.7612 C.ar    1  UNL1        0.0001
     27 C         138.4555  138.2181  166.1554 C.ar    1  UNL1       -0.0001
     28 C         138.9340  137.2539  165.1108 C.ar    1  UNL1        0.0031
     29 C         138.9904  137.6740  163.6719 C.ar    1  UNL1        0.0366
     30 C         138.5682  139.0583  163.2777 C.ar    1  UNL1        0.1360
     31 O         138.6246  139.4785  161.8388 O.3     1  UNL1       -0.4717
     32 C         137.4246  139.2970  160.9570 C.3     1  UNL1        0.2525
@<TRIPOS>BOND
     1     9    10    1
     2    10     7    1
     3     7     8    2
     4     7     1    1
     5     1    11    1
     6    11    12    1
     7    12    13   am
     8    13    14    2
     9    13    16    1
    10    16    17   ar
    11    17    18   ar
    12    18    19    1
    13    18    20   ar
    14    20    21   ar
    15    21    22    1
    16    21    23   ar
    17     1     2    1
    18     2     3    1
    19     3     4    1
    20     4    24    1
    21    24    25    1
    22    25    26   ar
    23    26    27   ar
    24    27    28   ar
    25    28    29   ar
    26    29    30   ar
    27    30    31    1
    28    31    32    1
    29     4     5    1
    30     5     6    1
    31     6     1    1
    32    23    16   ar
    33    30    25   ar
    34    12    15    1
@<TRIPOS>MOLECULE
*****
 32 34 0 0 0
SMALL
GASTEIGER

@<TRIPOS>ATOM
      1 C         143.6165  139.4946  161.0255 C.3     1  UNL1        0.1102
      2 C         143.2163  138.1143  160.5960 C.3     1  UNL1        0.0296
      3 C         142.9465  137.8279  159.1485 C.3     1  UNL1        0.0730
      4 N         143.0770  138.9219  158.1305 N.3     1  UNL1       -0.2689
      5 C         143.4772  140.3022  158.5600 C.3     1  UNL1        0.0730
      6 C         143.7469  140.5886  160.0075 C.3     1  UNL1        0.0296
      7 C         144.0201  140.6323  161.9159 C.2     1  UNL1        0.3177
      8 O         143.1317  141.8338  162.0468 O.2     1  UNL1       -0.2501
      9 C         145.6778  141.6687  163.6270 C.3     1  UNL1        0.2556
     10 O         145.3119  140.5684  162.6755 O.3     1  UNL1       -0.4444
     11 C         143.6262  138.7958  162.3527 C.3     1  UNL1        0.1002
     12 N         142.5656  139.1007  163.3686 N.am    1  UNL1       -0.3003
     13 C         142.8930  139.0537  164.8318 C.2     1  UNL1        0.2459
     14 O         144.2809  138.7018  165.2789 O.2     1  UNL1       -0.2701
     15 H         141.6547  139.3317  163.0752 H       1  UNL1        0.1498
     16 C         141.8324  139.3586  165.8478 C.ar    1  UNL1        0.0550
     17 C         142.2138  139.9267  167.1826 C.ar    1  UNL1        0.0160
     18 C         141.1532  140.2316  168.1986 C.ar    1  UNL1        0.0587
     19 CL        141.5346  140.7997  169.5335 Cl      1  UNL1       -0.0822
     20 C         139.7113  139.9685  167.8798 C.ar    1  UNL1        0.0228
     21 C         139.3299  139.4004  166.5448 C.ar    1  UNL1        0.0587
     22 CL        137.8881  139.1372  166.2260 Cl      1  UNL1       -0.0822
     23 C         140.3905  139.0955  165.5289 C.ar    1  UNL1        0.0160
     24 C         142.8072  138.6355  156.6831 C.3     1  UNL1        0.1022
     25 C         142.7348  137.2173  156.2000 C.ar    1  UNL1        0.0279
     26 C         143.9950  136.4669  155.8853 C.ar    1  UNL1        0.0001
     27 C         143.9227  135.0486  155.4022 C.ar    1  UNL1       -0.0001
     28 C         142.5902  134.3807  155.2337 C.ar    1  UNL1        0.0031
     29 C         141.3300  135.1311  155.5484 C.ar    1  UNL1        0.0366
     30 C         141.4024  136.5493  156.0315 C.ar    1  UNL1        0.1360
     31 O         140.1422  137.2997  156.3462 O.3     1  UNL1       -0.4717
     32 C         138.9159  137.0909  155.5079 C.3     1  UNL1        0.2525
@<TRIPOS>BOND
     1     9    10    1
     2    10     7    1
     3     7     8    2
     4     7     1    1
     5     1    11    1
     6    11    12    1
     7    12    13   am
     8    13    14    2
     9    13    16    1
    10    16    17   ar
    11    17    18   ar
    12    18    19    1
    13    18    20   ar
    14    20    21   ar
    15    21    22    1
    16    21    23   ar
    17     1     2    1
    18     2     3    1
    19     3     4    1
    20     4    24    1
    21    24    25    1
    22    25    26   ar
    23    26    27   ar
    24    27    28   ar
    25    28    29   ar
    26    29    30   ar
    27    30    31    1
    28    31    32    1
    29     4     5    1
    30     5     6    1
    31     6     1    1
    32    23    16   ar
    33    30    25   ar
    34    12    15    1
@<TRIPOS>MOLECULE
*****
 32 34 0 0 0
SMALL
GASTEIGER

@<TRIPOS>ATOM
      1 C         141.5637  138.4373  159.0620 C.3     1  UNL1        0.1102
      2 C         142.8198  137.9014  159.6823 C.3     1  UNL1        0.0296
      3 C         142.9122  137.7417  161.1710 C.3     1  UNL1        0.0730
      4 N         141.7484  138.1181  162.0393 N.3     1  UNL1       -0.2689
      5 C         140.4922  138.6540  161.4190 C.3     1  UNL1        0.0730
      6 C         140.3998  138.8136  159.9304 C.3     1  UNL1        0.0296
      7 C         140.5948  138.8981  158.0137 C.2     1  UNL1        0.3177
      8 O         139.1190  138.7626  158.2450 O.2     1  UNL1       -0.2501
      9 C         140.1497  140.1706  155.7927 C.3     1  UNL1        0.2556
     10 O         141.1018  139.4944  156.7341 O.3     1  UNL1       -0.4444
     11 C         142.3910  138.2210  157.8297 C.3     1  UNL1        0.1002
     12 N         143.0156  136.8820  157.5711 N.am    1  UNL1       -0.3003
     13 C         142.3658  135.9227  156.6184 C.2     1  UNL1        0.2459
     14 O         141.0915  136.3025  155.9243 O.2     1  UNL1       -0.2701
     15 H         143.8520  136.6327  158.0267 H       1  UNL1        0.1498
     16 C         142.9904  134.5837  156.3598 C.ar    1  UNL1        0.0550
     17 C         143.9108  133.9764  157.3767 C.ar    1  UNL1        0.0160
     18 C         144.5354  132.6374  157.1181 C.ar    1  UNL1        0.0587
     19 CL        145.4558  132.0302  158.1351 Cl      1  UNL1       -0.0822
     20 C         144.2396  131.9056  155.8427 C.ar    1  UNL1        0.0228
     21 C         143.3191  132.5128  154.8257 C.ar    1  UNL1        0.0587
     22 CL        143.0234  131.7810  153.5502 Cl      1  UNL1       -0.0822
     23 C         142.6946  133.8518  155.0843 C.ar    1  UNL1        0.0160
     24 C         141.8407  137.9584  163.5279 C.3     1  UNL1        0.1022
     25 C         140.7081  138.4085  164.4022 C.ar    1  UNL1        0.0279
     26 C         139.6172  137.4471  164.7707 C.ar    1  UNL1        0.0001
     27 C         138.4845  137.8971  165.6450 C.ar    1  UNL1       -0.0001
     28 C         138.4426  139.3086  166.1508 C.ar    1  UNL1        0.0031
     29 C         139.5335  140.2701  165.7824 C.ar    1  UNL1        0.0366
     30 C         140.6661  139.8200  164.9081 C.ar    1  UNL1        0.1360
     31 O         141.7570  140.7814  164.5396 O.3     1  UNL1       -0.4717
     32 C         141.4461  141.9793  163.6919 C.3     1  UNL1        0.2525
@<TRIPOS>BOND
     1     9    10    1
     2    10     7    1
     3     7     8    2
     4     7     1    1
     5     1    11    1
     6    11    12    1
     7    12    13   am
     8    13    14    2
     9    13    16    1
    10    16    17   ar
    11    17    18   ar
    12    18    19    1
    13    18    20   ar
    14    20    21   ar
    15    21    22    1
    16    21    23   ar
    17     1     2    1
    18     2     3    1
    19     3     4    1
    20     4    24    1
    21    24    25    1
    22    25    26   ar
    23    26    27   ar
    24    27    28   ar
    25    28    29   ar
    26    29    30   ar
    27    30    31    1
    28    31    32    1
    29     4     5    1
    30     5     6    1
    31     6     1    1
    32    23    16   ar
    33    30    25   ar
    34    12    15    1
@<TRIPOS>MOLECULE
*****
 32 34 0 0 0
SMALL
GASTEIGER

@<TRIPOS>ATOM
      1 C         139.2628  142.8320  163.8785 C.3     1  UNL1        0.1102
      2 C         140.6480  143.0283  164.4193 C.3     1  UNL1        0.0296
      3 C         141.2045  142.0636  165.4241 C.3     1  UNL1        0.0730
      4 N         140.3757  140.9026  165.8882 N.3     1  UNL1       -0.2689
      5 C         138.9905  140.7063  165.3473 C.3     1  UNL1        0.0730
      6 C         138.4340  141.6710  164.3425 C.3     1  UNL1        0.0296
      7 C         138.0148  143.0673  163.0802 C.2     1  UNL1        0.3177
      8 O         137.4324  144.4465  162.9878 O.2     1  UNL1       -0.2501
      9 C         137.9278  141.3915  161.0967 C.3     1  UNL1        0.2556
     10 O         137.3492  141.9233  162.3743 O.3     1  UNL1       -0.4444
     11 C         139.6581  144.0746  163.1372 C.3     1  UNL1        0.1002
     12 N         140.3269  143.9688  161.7988 N.am    1  UNL1       -0.3003
     13 C         140.2097  145.0916  160.8109 C.2     1  UNL1        0.2459
     14 O         139.4238  146.3201  161.1616 O.2     1  UNL1       -0.2701
     15 H         140.8427  143.1625  161.5686 H       1  UNL1        0.1498
     16 C         140.8785  144.9857  159.4724 C.ar    1  UNL1        0.0550
     17 C         140.3809  145.8047  158.3185 C.ar    1  UNL1        0.0160
     18 C         141.0496  145.6989  156.9801 C.ar    1  UNL1        0.0587
     19 CL        140.5519  146.5180  155.8261 Cl      1  UNL1       -0.0822
     20 C         142.2160  144.7740  156.7955 C.ar    1  UNL1        0.0228
     21 C         142.7137  143.9550  157.9494 C.ar    1  UNL1        0.0587
     22 CL        143.8801  143.0301  157.7648 Cl      1  UNL1       -0.0822
     23 C         142.0450  144.0608  159.2879 C.ar    1  UNL1        0.0160
     24 C         140.9323  139.9380  166.8930 C.3     1  UNL1        0.1022
     25 C         141.3256  140.4203  168.2577 C.ar    1  UNL1        0.0279
     26 C         142.6967  140.9837  168.4878 C.ar    1  UNL1        0.0001
     27 C         143.0901  141.4661  169.8526 C.ar    1  UNL1       -0.0001
     28 C         142.1125  141.3850  170.9873 C.ar    1  UNL1        0.0031
     29 C         140.7414  140.8216  170.7573 C.ar    1  UNL1        0.0366
     30 C         140.3481  140.3393  169.3925 C.ar    1  UNL1        0.1360
     31 O         138.9770  139.7759  169.1625 O.3     1  UNL1       -0.4717
     32 C         137.9461  139.8439  170.2501 C.3     1  UNL1        0.2525
@<TRIPOS>BOND
     1     9    10    1
     2    10     7    1
     3     7     8    2
     4     7     1    1
     5     1    11    1
     6    11    12    1
     7    12    13   am
     8    13    14    2
     9    13    16    1
    10    16    17   ar
    11    17    18   ar
    12    18    19    1
    13    18    20   ar
    14    20    21   ar
    15    21    22    1
    16    21    23   ar
    17     1     2    1
    18     2     3    1
    19     3     4    1
    20     4    24    1
    21    24    25    1
    22    25    26   ar
    23    26    27   ar
    24    27    28   ar
    25    28    29   ar
    26    29    30   ar
    27    30    31    1
    28    31    32    1
    29     4     5    1
    30     5     6    1
    31     6     1    1
    32    23    16   ar
    33    30    25   ar
    34    12    15    1
