@<TRIPOS>MOLECULE
*****
 40 43 0 0 0
SMALL
GASTEIGER

@<TRIPOS>ATOM
      1 C         142.8592  138.5805  157.5205 C.2     1  UNL1       -0.0078
      2 C         143.6817  139.6585  156.8791 C.2     1  UNL1       -0.0414
      3 C         144.1672  139.4930  155.4695 C.3     1  UNL1        0.0394
      4 C         144.9897  140.5711  154.8282 C.3     1  UNL1        0.0767
      5 N         145.3268  141.8145  155.5964 N.3     1  UNL1       -0.2683
      6 C         144.8413  141.9800  157.0059 C.3     1  UNL1        0.0767
      7 C         144.0188  140.9021  157.6473 C.3     1  UNL1        0.0394
      8 C         141.4027  139.0770  161.7492 C.ar    1  UNL1        0.0536
      9 C         140.8467  139.9430  160.6579 C.ar    1  UNL1        0.0045
     10 C         141.3322  139.7775  159.2484 C.ar    1  UNL1        0.0001
     11 C         142.3737  138.7460  158.9301 C.ar    1  UNL1       -0.0006
     12 C         142.9296  137.8800  160.0213 C.ar    1  UNL1        0.0001
     13 C         142.4442  138.0455  161.4309 C.ar    1  UNL1        0.0045
     14 N         139.6583  138.5590  163.6036 N.am    1  UNL1       -0.2761
     15 C         140.9172  139.2425  163.1588 C.2     1  UNL1        0.2490
     16 O         141.6906  140.0916  164.1236 O.2     1  UNL1       -0.2699
     17 C         138.3022  139.8914  165.3744 C.3     1  UNL1        0.0233
     18 C         139.1728  138.7245  165.0131 C.3     1  UNL1        0.0938
     19 C         138.8848  137.7099  162.6387 C.3     1  UNL1        0.0938
     20 C         137.7828  138.3168  161.8220 C.3     1  UNL1        0.0233
     21 C         142.5222  137.3371  156.7523 C.ar    1  UNL1        0.0006
     22 C         141.1679  137.1869  156.1250 C.ar    1  UNL1        0.0001
     23 C         140.8309  135.9434  155.3568 C.ar    1  UNL1        0.0013
     24 C         141.8481  134.8501  155.2159 C.ar    1  UNL1        0.0148
     25 C         143.2023  135.0002  155.8431 C.ar    1  UNL1        0.0532
     26 C         143.5394  136.2437  156.6113 C.ar    1  UNL1        0.0147
     27 N         144.2195  133.9069  155.7021 N.am    1  UNL1       -0.2499
     28 C         144.0074  132.5917  156.3915 C.2     1  UNL1        0.4055
     29 O         142.7781  132.3698  157.2219 O.2     1  UNL1       -0.2261
     30 H         145.0264  134.0525  155.1571 H       1  UNL1        0.1582
     31 O         145.0247  131.4984  156.2506 O.3     1  UNL1       -0.4304
     32 C         144.6769  130.2414  155.5094 C.3     1  UNL1        0.2574
     33 C         146.1493  142.8926  154.9550 C.3     1  UNL1        0.0992
     34 C         147.6093  142.6673  154.6947 C.ar    1  UNL1       -0.0060
     35 C         148.4215  141.8386  155.6453 C.ar    1  UNL1       -0.0006
     36 C         149.8814  141.6133  155.3850 C.ar    1  UNL1        0.0294
     37 C         150.5292  142.2168  154.1741 C.ar    1  UNL1        0.1401
     38 F         151.9892  141.9915  153.9138 F       1  UNL1       -0.2042
     39 C         149.7170  143.0454  153.2235 C.ar    1  UNL1        0.0294
     40 C         148.2571  143.2707  153.4838 C.ar    1  UNL1       -0.0006
@<TRIPOS>BOND
     1    17    18    1
     2    18    14    1
     3    14    19    1
     4    19    20    1
     5    14    15   am
     6    15    16    2
     7    15     8    1
     8     8     9   ar
     9     9    10   ar
    10    10    11   ar
    11    11     1    1
    12     1     2    2
    13     2     3    1
    14     3     4    1
    15     4     5    1
    16     5    33    1
    17    33    34    1
    18    34    35   ar
    19    35    36   ar
    20    36    37   ar
    21    37    38    1
    22    37    39   ar
    23    39    40   ar
    24     5     6    1
    25     6     7    1
    26     1    21    1
    27    21    22   ar
    28    22    23   ar
    29    23    24   ar
    30    24    25   ar
    31    25    27    1
    32    27    28   am
    33    28    29    2
    34    28    31    1
    35    31    32    1
    36    25    26   ar
    37    11    12   ar
    38    12    13   ar
    39    13     8   ar
    40     7     2    1
    41    26    21   ar
    42    40    34   ar
    43    27    30    1
@<TRIPOS>MOLECULE
*****
 40 43 0 0 0
SMALL
GASTEIGER

@<TRIPOS>ATOM
      1 C         142.7363  138.1253  157.3766 C.2     1  UNL1       -0.0078
      2 C         143.6400  139.2276  156.9096 C.2     1  UNL1       -0.0414
      3 C         144.3136  139.1298  155.5730 C.3     1  UNL1        0.0394
      4 C         145.2174  140.2322  155.1060 C.3     1  UNL1        0.0767
      5 N         145.4475  141.4324  155.9758 N.3     1  UNL1       -0.2683
      6 C         144.7738  141.5303  157.3124 C.3     1  UNL1        0.0767
      7 C         143.8701  140.4280  157.7794 C.3     1  UNL1        0.0394
      8 C         140.7155  138.4189  161.3866 C.ar    1  UNL1        0.0536
      9 C         142.0934  137.8356  161.2820 C.ar    1  UNL1        0.0045
     10 C         142.7670  137.7377  159.9454 C.ar    1  UNL1        0.0001
     11 C         142.0627  138.2232  158.7132 C.ar    1  UNL1       -0.0006
     12 C         140.6848  138.8066  158.8178 C.ar    1  UNL1        0.0001
     13 C         140.0111  138.9044  160.1544 C.ar    1  UNL1        0.0045
     14 N         140.3028  139.6982  163.6099 N.am    1  UNL1       -0.2761
     15 C         140.0418  138.5168  162.7232 C.2     1  UNL1        0.2490
     16 O         139.1073  137.4333  163.1733 O.2     1  UNL1       -0.2699
     17 C         138.2126  140.2808  165.0388 C.3     1  UNL1        0.0233
     18 C         139.6292  139.7961  164.9466 C.3     1  UNL1        0.0938
     19 C         141.2374  140.7818  163.1599 C.3     1  UNL1        0.0938
     20 C         142.6221  140.8628  163.7309 C.3     1  UNL1        0.0233
     21 C         142.5062  136.9251  156.5069 C.ar    1  UNL1        0.0006
     22 C         141.2920  136.8568  155.6287 C.ar    1  UNL1        0.0001
     23 C         141.0619  135.6566  154.7590 C.ar    1  UNL1        0.0013
     24 C         142.0459  134.5245  154.7674 C.ar    1  UNL1        0.0148
     25 C         143.2601  134.5927  155.6455 C.ar    1  UNL1        0.0532
     26 C         143.4903  135.7930  156.5152 C.ar    1  UNL1        0.0147
     27 N         144.2442  133.4607  155.6538 N.am    1  UNL1       -0.2499
     28 C         143.9446  132.2123  156.4295 C.2     1  UNL1        0.4055
     29 O         142.6609  132.0958  157.1968 O.2     1  UNL1       -0.2261
     30 H         145.0867  133.5371  155.1502 H       1  UNL1        0.1582
     31 O         144.9287  131.0802  156.4378 O.3     1  UNL1       -0.4304
     32 C         144.8982  130.0518  155.3462 C.3     1  UNL1        0.2574
     33 C         146.3512  142.5349  155.5088 C.3     1  UNL1        0.0992
     34 C         147.6516  142.2051  154.8379 C.ar    1  UNL1       -0.0060
     35 C         148.8465  141.8276  155.6626 C.ar    1  UNL1       -0.0006
     36 C         150.1469  141.4978  154.9916 C.ar    1  UNL1        0.0294
     37 C         150.2525  141.5456  153.4961 C.ar    1  UNL1        0.1401
     38 F         151.5529  141.2158  152.8252 F       1  UNL1       -0.2042
     39 C         149.0577  141.9231  152.6715 C.ar    1  UNL1        0.0294
     40 C         147.7573  142.2528  153.3424 C.ar    1  UNL1       -0.0006
@<TRIPOS>BOND
     1    17    18    1
     2    18    14    1
     3    14    19    1
     4    19    20    1
     5    14    15   am
     6    15    16    2
     7    15     8    1
     8     8     9   ar
     9     9    10   ar
    10    10    11   ar
    11    11     1    1
    12     1     2    2
    13     2     3    1
    14     3     4    1
    15     4     5    1
    16     5    33    1
    17    33    34    1
    18    34    35   ar
    19    35    36   ar
    20    36    37   ar
    21    37    38    1
    22    37    39   ar
    23    39    40   ar
    24     5     6    1
    25     6     7    1
    26     1    21    1
    27    21    22   ar
    28    22    23   ar
    29    23    24   ar
    30    24    25   ar
    31    25    27    1
    32    27    28   am
    33    28    29    2
    34    28    31    1
    35    31    32    1
    36    25    26   ar
    37    11    12   ar
    38    12    13   ar
    39    13     8   ar
    40     7     2    1
    41    26    21   ar
    42    40    34   ar
    43    27    30    1
@<TRIPOS>MOLECULE
*****
 40 43 0 0 0
SMALL
GASTEIGER

@<TRIPOS>ATOM
      1 C         138.6080  141.8839  156.7521 C.2     1  UNL1       -0.0078
      2 C         139.1128  143.1223  156.0728 C.2     1  UNL1       -0.0414
      3 C         138.5410  143.5382  154.7499 C.3     1  UNL1        0.0394
      4 C         139.0459  144.7767  154.0707 C.3     1  UNL1        0.0767
      5 N         140.1224  145.5993  154.7144 N.3     1  UNL1       -0.2683
      6 C         140.6941  145.1834  156.0373 C.3     1  UNL1        0.0767
      7 C         140.1894  143.9450  156.7165 C.3     1  UNL1        0.0394
      8 C         140.3232  140.6363  160.7209 C.ar    1  UNL1        0.0536
      9 C         139.1149  141.5236  160.6716 C.ar    1  UNL1        0.0045
     10 C         138.5431  141.9394  159.3487 C.ar    1  UNL1        0.0001
     11 C         139.1797  141.4680  158.0750 C.ar    1  UNL1       -0.0006
     12 C         140.3881  140.5807  158.1242 C.ar    1  UNL1        0.0001
     13 C         140.9599  140.1648  159.4471 C.ar    1  UNL1        0.0045
     14 N         140.5329  138.8890  162.6321 N.am    1  UNL1       -0.2761
     15 C         140.8950  140.2204  162.0438 C.2     1  UNL1        0.2490
     16 O         141.8288  141.1360  162.7784 O.2     1  UNL1       -0.2699
     17 C         141.1334  137.0228  164.3371 C.3     1  UNL1        0.0233
     18 C         141.1047  138.4731  163.9551 C.3     1  UNL1        0.0938
     19 C         139.5991  137.9733  161.8975 C.3     1  UNL1        0.0938
     20 C         138.1163  138.1144  162.0750 C.3     1  UNL1        0.0233
     21 C         137.5315  141.0613  156.1084 C.ar    1  UNL1        0.0006
     22 C         137.8931  140.0011  155.1106 C.ar    1  UNL1        0.0001
     23 C         136.8165  139.1785  154.4669 C.ar    1  UNL1        0.0013
     24 C         135.3784  139.4161  154.8209 C.ar    1  UNL1        0.0148
     25 C         135.0167  140.4762  155.8185 C.ar    1  UNL1        0.0532
     26 C         136.0933  141.2988  156.4623 C.ar    1  UNL1        0.0147
     27 N         133.5786  140.7137  156.1725 N.am    1  UNL1       -0.2499
     28 C         132.9030  139.8430  157.1900 C.2     1  UNL1        0.4055
     29 O         133.6655  138.7347  157.8536 O.2     1  UNL1       -0.2261
     30 H         133.0781  141.4411  155.7369 H       1  UNL1        0.1582
     31 O         131.4648  140.0805  157.5439 O.3     1  UNL1       -0.4304
     32 C         130.3771  139.5675  156.6473 C.3     1  UNL1        0.2574
     33 C         140.6272  146.8378  154.0351 C.3     1  UNL1        0.0992
     34 C         140.0180  148.1704  154.3560 C.ar    1  UNL1       -0.0060
     35 C         139.0409  148.2956  155.4873 C.ar    1  UNL1       -0.0006
     36 C         138.4317  149.6282  155.8081 C.ar    1  UNL1        0.0294
     37 C         138.7995  150.8357  154.9977 C.ar    1  UNL1        0.1401
     38 F         138.1903  152.1683  155.3185 F       1  UNL1       -0.2042
     39 C         139.7765  150.7105  153.8664 C.ar    1  UNL1        0.0294
     40 C         140.3857  149.3779  153.5456 C.ar    1  UNL1       -0.0006
@<TRIPOS>BOND
     1    17    18    1
     2    18    14    1
     3    14    19    1
     4    19    20    1
     5    14    15   am
     6    15    16    2
     7    15     8    1
     8     8     9   ar
     9     9    10   ar
    10    10    11   ar
    11    11     1    1
    12     1     2    2
    13     2     3    1
    14     3     4    1
    15     4     5    1
    16     5    33    1
    17    33    34    1
    18    34    35   ar
    19    35    36   ar
    20    36    37   ar
    21    37    38    1
    22    37    39   ar
    23    39    40   ar
    24     5     6    1
    25     6     7    1
    26     1    21    1
    27    21    22   ar
    28    22    23   ar
    29    23    24   ar
    30    24    25   ar
    31    25    27    1
    32    27    28   am
    33    28    29    2
    34    28    31    1
    35    31    32    1
    36    25    26   ar
    37    11    12   ar
    38    12    13   ar
    39    13     8   ar
    40     7     2    1
    41    26    21   ar
    42    40    34   ar
    43    27    30    1
@<TRIPOS>MOLECULE
*****
 40 43 0 0 0
SMALL
GASTEIGER

@<TRIPOS>ATOM
      1 C         140.0709  139.3908  156.6925 C.2     1  UNL1       -0.0078
      2 C         138.7093  139.8406  156.2522 C.2     1  UNL1       -0.0414
      3 C         138.1077  139.2888  154.9939 C.3     1  UNL1        0.0394
      4 C         136.7461  139.7387  154.5536 C.3     1  UNL1        0.0767
      5 N         135.9862  140.7403  155.3717 N.3     1  UNL1       -0.2683
      6 C         136.5879  141.2921  156.6301 C.3     1  UNL1        0.0767
      7 C         137.9494  140.8422  157.0704 C.3     1  UNL1        0.0394
      8 C         141.8758  141.0461  160.4677 C.ar    1  UNL1        0.0536
      9 C         142.2655  141.6177  159.1368 C.ar    1  UNL1        0.0045
     10 C         141.6638  141.0659  157.8784 C.ar    1  UNL1        0.0001
     11 C         140.6725  139.9426  157.9509 C.ar    1  UNL1       -0.0006
     12 C         140.2829  139.3710  159.2818 C.ar    1  UNL1        0.0001
     13 C         140.8846  139.9227  160.5402 C.ar    1  UNL1        0.0045
     14 N         143.6716  140.9308  162.3417 N.am    1  UNL1       -0.2761
     15 C         142.4775  141.5979  161.7261 C.2     1  UNL1        0.2490
     16 O         141.8850  142.8168  162.3689 O.2     1  UNL1       -0.2699
     17 C         145.7621  141.6185  163.7226 C.3     1  UNL1        0.0233
     18 C         144.2733  141.4826  163.6000 C.3     1  UNL1        0.0938
     19 C         144.2642  139.7119  161.6988 C.3     1  UNL1        0.0938
     20 C         143.8367  138.3454  162.1460 C.3     1  UNL1        0.0233
     21 C         140.8307  138.3892  155.8744 C.ar    1  UNL1        0.0006
     22 C         141.6653  138.8463  154.7148 C.ar    1  UNL1        0.0001
     23 C         142.4251  137.8447  153.8966 C.ar    1  UNL1        0.0013
     24 C         142.3505  136.3860  154.2381 C.ar    1  UNL1        0.0148
     25 C         141.5160  135.9289  155.3976 C.ar    1  UNL1        0.0532
     26 C         140.7561  136.9305  156.2158 C.ar    1  UNL1        0.0147
     27 N         141.4414  134.4701  155.7391 N.am    1  UNL1       -0.2499
     28 C         142.5551  133.8216  156.5066 C.2     1  UNL1        0.4055
     29 O         143.7435  134.6318  156.9326 O.2     1  UNL1       -0.2261
     30 H         140.6615  133.9384  155.4595 H       1  UNL1        0.1582
     31 O         142.4805  132.3629  156.8480 O.3     1  UNL1       -0.4304
     32 C         142.2597  131.3493  155.7644 C.3     1  UNL1        0.2574
     33 C         134.6246  141.1901  154.9315 C.3     1  UNL1        0.0992
     34 C         133.3988  140.5830  155.5469 C.ar    1  UNL1       -0.0060
     35 C         133.4804  139.2425  156.2150 C.ar    1  UNL1       -0.0006
     36 C         132.2546  138.6354  156.8305 C.ar    1  UNL1        0.0294
     37 C         130.9472  139.3689  156.7779 C.ar    1  UNL1        0.1401
     38 F         129.7213  138.7618  157.3934 F       1  UNL1       -0.2042
     39 C         130.8656  140.7094  156.1098 C.ar    1  UNL1        0.0294
     40 C         132.0914  141.3165  155.4944 C.ar    1  UNL1       -0.0006
@<TRIPOS>BOND
     1    17    18    1
     2    18    14    1
     3    14    19    1
     4    19    20    1
     5    14    15   am
     6    15    16    2
     7    15     8    1
     8     8     9   ar
     9     9    10   ar
    10    10    11   ar
    11    11     1    1
    12     1     2    2
    13     2     3    1
    14     3     4    1
    15     4     5    1
    16     5    33    1
    17    33    34    1
    18    34    35   ar
    19    35    36   ar
    20    36    37   ar
    21    37    38    1
    22    37    39   ar
    23    39    40   ar
    24     5     6    1
    25     6     7    1
    26     1    21    1
    27    21    22   ar
    28    22    23   ar
    29    23    24   ar
    30    24    25   ar
    31    25    27    1
    32    27    28   am
    33    28    29    2
    34    28    31    1
    35    31    32    1
    36    25    26   ar
    37    11    12   ar
    38    12    13   ar
    39    13     8   ar
    40     7     2    1
    41    26    21   ar
    42    40    34   ar
    43    27    30    1
@<TRIPOS>MOLECULE
*****
 40 43 0 0 0
SMALL
GASTEIGER

@<TRIPOS>ATOM
      1 C         140.2948  139.9227  157.6198 C.2     1  UNL1       -0.0078
      2 C         139.0071  140.0486  156.8610 C.2     1  UNL1       -0.0414
      3 C         138.8613  139.3971  155.5178 C.3     1  UNL1        0.0394
      4 C         137.5735  139.5230  154.7589 C.3     1  UNL1        0.0767
      5 N         136.4316  140.3005  155.3433 N.3     1  UNL1       -0.2683
      6 C         136.5774  140.9520  156.6865 C.3     1  UNL1        0.0767
      7 C         137.8651  140.8261  157.4454 C.3     1  UNL1        0.0394
      8 C         140.7322  141.8772  161.6495 C.ar    1  UNL1        0.0536
      9 C         141.0002  142.6644  160.4011 C.ar    1  UNL1        0.0045
     10 C         140.8544  142.0128  159.0579 C.ar    1  UNL1        0.0001
     11 C         140.4406  140.5742  158.9631 C.ar    1  UNL1       -0.0006
     12 C         140.1726  139.7871  160.2115 C.ar    1  UNL1        0.0001
     13 C         140.3185  140.4386  161.5547 C.ar    1  UNL1        0.0045
     14 N         139.6895  143.1645  163.6509 N.am    1  UNL1       -0.2761
     15 C         140.8780  142.5288  162.9927 C.2     1  UNL1        0.2490
     16 O         142.2124  142.5446  163.6778 O.2     1  UNL1       -0.2699
     17 C         138.8556  144.8653  165.4291 C.3     1  UNL1        0.0233
     18 C         139.8354  143.8160  164.9942 C.3     1  UNL1        0.0938
     19 C         138.3551  143.1487  162.9659 C.3     1  UNL1        0.0938
     20 C         137.3703  142.0582  163.2672 C.3     1  UNL1        0.0233
     21 C         141.4367  139.1452  157.0355 C.ar    1  UNL1        0.0006
     22 C         142.3810  139.8065  156.0756 C.ar    1  UNL1        0.0001
     23 C         143.5229  139.0290  155.4912 C.ar    1  UNL1        0.0013
     24 C         143.7206  137.5903  155.8666 C.ar    1  UNL1        0.0148
     25 C         142.7765  136.9290  156.8264 C.ar    1  UNL1        0.0532
     26 C         141.6345  137.7065  157.4109 C.ar    1  UNL1        0.0147
     27 N         142.9742  135.4903  157.2018 N.am    1  UNL1       -0.2499
     28 C         142.3492  134.4065  156.3743 C.2     1  UNL1        0.4055
     29 O         141.5263  134.7615  155.1714 O.2     1  UNL1       -0.2261
     30 H         143.5143  135.2573  157.9913 H       1  UNL1        0.1582
     31 O         142.5470  132.9678  156.7497 O.3     1  UNL1       -0.4304
     32 C         142.2111  131.8837  155.7688 C.3     1  UNL1        0.2574
     33 C         135.1438  140.4265  154.5845 C.3     1  UNL1        0.0992
     34 C         133.8339  140.2785  155.3003 C.ar    1  UNL1       -0.0060
     35 C         133.5839  139.0796  156.1666 C.ar    1  UNL1       -0.0006
     36 C         132.2741  138.9316  156.8824 C.ar    1  UNL1        0.0294
     37 C         131.2142  139.9824  156.7319 C.ar    1  UNL1        0.1401
     38 F         129.9044  139.8344  157.4477 F       1  UNL1       -0.2042
     39 C         131.4643  141.1812  155.8657 C.ar    1  UNL1        0.0294
     40 C         132.7741  141.3292  155.1499 C.ar    1  UNL1       -0.0006
@<TRIPOS>BOND
     1    17    18    1
     2    18    14    1
     3    14    19    1
     4    19    20    1
     5    14    15   am
     6    15    16    2
     7    15     8    1
     8     8     9   ar
     9     9    10   ar
    10    10    11   ar
    11    11     1    1
    12     1     2    2
    13     2     3    1
    14     3     4    1
    15     4     5    1
    16     5    33    1
    17    33    34    1
    18    34    35   ar
    19    35    36   ar
    20    36    37   ar
    21    37    38    1
    22    37    39   ar
    23    39    40   ar
    24     5     6    1
    25     6     7    1
    26     1    21    1
    27    21    22   ar
    28    22    23   ar
    29    23    24   ar
    30    24    25   ar
    31    25    27    1
    32    27    28   am
    33    28    29    2
    34    28    31    1
    35    31    32    1
    36    25    26   ar
    37    11    12   ar
    38    12    13   ar
    39    13     8   ar
    40     7     2    1
    41    26    21   ar
    42    40    34   ar
    43    27    30    1
@<TRIPOS>MOLECULE
*****
 40 43 0 0 0
SMALL
GASTEIGER

@<TRIPOS>ATOM
      1 C         139.7684  140.4556  158.3094 C.2     1  UNL1       -0.0078
      2 C         140.6907  139.4460  157.6929 C.2     1  UNL1       -0.0414
      3 C         140.9558  139.4751  156.2168 C.3     1  UNL1        0.0394
      4 C         141.8782  138.4655  155.6004 C.3     1  UNL1        0.0767
      5 N         142.5355  137.4268  156.4601 N.3     1  UNL1       -0.2683
      6 C         142.2704  137.3977  157.9362 C.3     1  UNL1        0.0767
      7 C         141.3481  138.4073  158.5526 C.3     1  UNL1        0.0394
      8 C         138.9733  140.3682  162.7377 C.ar    1  UNL1        0.0536
      9 C         140.1889  141.0691  162.2077 C.ar    1  UNL1        0.0045
     10 C         140.4539  141.0982  160.7316 C.ar    1  UNL1        0.0001
     11 C         139.5034  140.4264  159.7855 C.ar    1  UNL1       -0.0006
     12 C         138.2877  139.7255  160.3155 C.ar    1  UNL1        0.0001
     13 C         138.0227  139.6964  161.7917 C.ar    1  UNL1        0.0045
     14 N         139.1180  139.1464  165.0260 N.am    1  UNL1       -0.2761
     15 C         138.7082  140.3390  164.2138 C.2     1  UNL1        0.2490
     16 O         138.0334  141.5025  164.8778 O.2     1  UNL1       -0.2699
     17 C         137.5904  138.4991  167.0254 C.3     1  UNL1        0.0233
     18 C         138.8530  139.1173  166.5021 C.3     1  UNL1        0.0938
     19 C         139.7929  137.9829  164.3621 C.3     1  UNL1        0.0938
     20 C         141.2666  137.7685  164.5414 C.3     1  UNL1        0.0233
     21 C         139.1111  141.4942  157.4497 C.ar    1  UNL1        0.0006
     22 C         139.8997  142.6740  156.9635 C.ar    1  UNL1        0.0001
     23 C         139.2424  143.7126  156.1038 C.ar    1  UNL1        0.0013
     24 C         137.7965  143.5717  155.7304 C.ar    1  UNL1        0.0148
     25 C         137.0079  142.3920  156.2166 C.ar    1  UNL1        0.0532
     26 C         137.6652  141.3532  157.0763 C.ar    1  UNL1        0.0147
     27 N         135.5620  142.2510  155.8431 N.am    1  UNL1       -0.2499
     28 C         135.1704  141.4099  154.6645 C.2     1  UNL1        0.4055
     29 O         136.2247  140.7098  153.8593 O.2     1  UNL1       -0.2261
     30 H         134.8700  142.7105  156.3716 H       1  UNL1        0.1582
     31 O         133.7245  141.2689  154.2911 O.3     1  UNL1       -0.4304
     32 C         132.6651  141.3481  155.3502 C.3     1  UNL1        0.2574
     33 C         143.4579  136.4172  155.8436 C.3     1  UNL1        0.0992
     34 C         143.0714  134.9682  155.8137 C.ar    1  UNL1       -0.0060
     35 C         141.7009  134.5668  155.3546 C.ar    1  UNL1       -0.0006
     36 C         141.3145  133.1177  155.3247 C.ar    1  UNL1        0.0294
     37 C         142.2986  132.0700  155.7538 C.ar    1  UNL1        0.1401
     38 F         141.9121  130.6210  155.7239 F       1  UNL1       -0.2042
     39 C         143.6690  132.4715  156.2129 C.ar    1  UNL1        0.0294
     40 C         144.0554  133.9205  156.2428 C.ar    1  UNL1       -0.0006
@<TRIPOS>BOND
     1    17    18    1
     2    18    14    1
     3    14    19    1
     4    19    20    1
     5    14    15   am
     6    15    16    2
     7    15     8    1
     8     8     9   ar
     9     9    10   ar
    10    10    11   ar
    11    11     1    1
    12     1     2    2
    13     2     3    1
    14     3     4    1
    15     4     5    1
    16     5    33    1
    17    33    34    1
    18    34    35   ar
    19    35    36   ar
    20    36    37   ar
    21    37    38    1
    22    37    39   ar
    23    39    40   ar
    24     5     6    1
    25     6     7    1
    26     1    21    1
    27    21    22   ar
    28    22    23   ar
    29    23    24   ar
    30    24    25   ar
    31    25    27    1
    32    27    28   am
    33    28    29    2
    34    28    31    1
    35    31    32    1
    36    25    26   ar
    37    11    12   ar
    38    12    13   ar
    39    13     8   ar
    40     7     2    1
    41    26    21   ar
    42    40    34   ar
    43    27    30    1
@<TRIPOS>MOLECULE
*****
 40 43 0 0 0
SMALL
GASTEIGER

@<TRIPOS>ATOM
      1 C         143.2673  138.8204  156.8521 C.2     1  UNL1       -0.0078
      2 C         143.2427  138.8967  158.3500 C.2     1  UNL1       -0.0414
      3 C         143.7144  140.1392  159.0455 C.3     1  UNL1        0.0394
      4 C         143.6898  140.2155  160.5434 C.3     1  UNL1        0.0767
      5 N         143.1936  139.0493  161.3457 N.3     1  UNL1       -0.2683
      6 C         142.7220  137.8068  160.6502 C.3     1  UNL1        0.0767
      7 C         142.7465  137.7305  159.1524 C.3     1  UNL1        0.0394
      8 C         141.8524  135.0928  154.7656 C.ar    1  UNL1        0.0536
      9 C         140.8558  136.0482  155.3522 C.ar    1  UNL1        0.0045
     10 C         141.3274  137.2907  156.0477 C.ar    1  UNL1        0.0001
     11 C         142.7956  137.5778  156.1566 C.ar    1  UNL1       -0.0006
     12 C         143.7922  136.6225  155.5700 C.ar    1  UNL1        0.0001
     13 C         143.3205  135.3800  154.8745 C.ar    1  UNL1        0.0045
     14 N         141.5533  132.5123  154.7259 N.am    1  UNL1       -0.2761
     15 C         141.3807  133.8503  154.0701 C.2     1  UNL1        0.2490
     16 O         140.7365  133.9458  152.7189 O.2     1  UNL1       -0.2699
     17 C         139.8756  130.5373  154.5393 C.3     1  UNL1        0.0233
     18 C         141.0817  131.2698  154.0304 C.3     1  UNL1        0.0938
     19 C         142.1976  132.4168  156.0771 C.3     1  UNL1        0.0938
     20 C         143.5971  131.8926  156.2054 C.3     1  UNL1        0.0233
     21 C         143.7634  139.9865  156.0498 C.ar    1  UNL1        0.0006
     22 C         142.7937  141.0059  155.5296 C.ar    1  UNL1        0.0001
     23 C         143.2899  142.1721  154.7273 C.ar    1  UNL1        0.0013
     24 C         144.7558  142.3190  154.4451 C.ar    1  UNL1        0.0148
     25 C         145.7255  141.2997  154.9653 C.ar    1  UNL1        0.0532
     26 C         145.2293  140.1334  155.7677 C.ar    1  UNL1        0.0147
     27 N         147.1914  141.4466  154.6832 N.am    1  UNL1       -0.2499
     28 C         148.0902  142.0870  155.6990 C.2     1  UNL1        0.4055
     29 O         147.5231  142.5806  156.9971 O.2     1  UNL1       -0.2261
     30 H         147.5635  141.1227  153.8313 H       1  UNL1        0.1582
     31 O         149.5560  142.2339  155.4169 O.3     1  UNL1       -0.4304
     32 C         150.3001  141.1324  154.7218 C.3     1  UNL1        0.2574
     33 C         143.1691  139.1256  162.8436 C.3     1  UNL1        0.0992
     34 C         143.5983  140.3842  163.5376 C.ar    1  UNL1       -0.0060
     35 C         142.5702  141.3023  164.1295 C.ar    1  UNL1       -0.0006
     36 C         142.9994  142.5609  164.8235 C.ar    1  UNL1        0.0294
     37 C         144.4568  142.9015  164.9256 C.ar    1  UNL1        0.1401
     38 F         144.8860  144.1601  165.6196 F       1  UNL1       -0.2042
     39 C         145.4847  141.9834  164.3337 C.ar    1  UNL1        0.0294
     40 C         145.0555  140.7248  163.6397 C.ar    1  UNL1       -0.0006
@<TRIPOS>BOND
     1    17    18    1
     2    18    14    1
     3    14    19    1
     4    19    20    1
     5    14    15   am
     6    15    16    2
     7    15     8    1
     8     8     9   ar
     9     9    10   ar
    10    10    11   ar
    11    11     1    1
    12     1     2    2
    13     2     3    1
    14     3     4    1
    15     4     5    1
    16     5    33    1
    17    33    34    1
    18    34    35   ar
    19    35    36   ar
    20    36    37   ar
    21    37    38    1
    22    37    39   ar
    23    39    40   ar
    24     5     6    1
    25     6     7    1
    26     1    21    1
    27    21    22   ar
    28    22    23   ar
    29    23    24   ar
    30    24    25   ar
    31    25    27    1
    32    27    28   am
    33    28    29    2
    34    28    31    1
    35    31    32    1
    36    25    26   ar
    37    11    12   ar
    38    12    13   ar
    39    13     8   ar
    40     7     2    1
    41    26    21   ar
    42    40    34   ar
    43    27    30    1
@<TRIPOS>MOLECULE
*****
 40 43 0 0 0
SMALL
GASTEIGER

@<TRIPOS>ATOM
      1 C         141.3386  139.2225  157.7577 C.2     1  UNL1       -0.0078
      2 C         141.4629  139.2834  159.2513 C.2     1  UNL1       -0.0414
      3 C         142.4341  138.3867  159.9602 C.3     1  UNL1        0.0394
      4 C         142.5583  138.4476  161.4539 C.3     1  UNL1        0.0767
      5 N         141.7113  139.4051  162.2385 N.3     1  UNL1       -0.2683
      6 C         140.7401  140.3018  161.5295 C.3     1  UNL1        0.0767
      7 C         140.6159  140.2410  160.0359 C.3     1  UNL1        0.0394
      8 C         138.4249  141.9126  155.6308 C.ar    1  UNL1        0.0536
      9 C         137.9961  140.5461  156.0768 C.ar    1  UNL1        0.0045
     10 C         138.9674  139.6495  156.7857 C.ar    1  UNL1        0.0001
     11 C         140.3674  140.1192  157.0487 C.ar    1  UNL1       -0.0006
     12 C         140.7962  141.4856  156.6027 C.ar    1  UNL1        0.0001
     13 C         139.8250  142.3823  155.8937 C.ar    1  UNL1        0.0045
     14 N         137.3840  142.8037  153.4234 N.am    1  UNL1       -0.2761
     15 C         137.4537  142.8093  154.9218 C.2     1  UNL1        0.2490
     16 O         136.5522  143.7115  155.7111 O.2     1  UNL1       -0.2699
     17 C         135.1854  143.1207  152.0759 C.3     1  UNL1        0.0233
     18 C         136.4127  143.7004  152.7145 C.3     1  UNL1        0.0938
     19 C         138.2855  141.9014  152.6340 C.3     1  UNL1        0.0938
     20 C         137.8307  140.5194  152.2692 C.3     1  UNL1        0.0233
     21 C         142.1856  138.2649  156.9731 C.ar    1  UNL1        0.0006
     22 C         143.4221  138.7531  156.2782 C.ar    1  UNL1        0.0001
     23 C         144.2691  137.7956  155.4936 C.ar    1  UNL1        0.0013
     24 C         143.8797  136.3498  155.4038 C.ar    1  UNL1        0.0148
     25 C         142.6432  135.8616  156.0987 C.ar    1  UNL1        0.0532
     26 C         141.7962  136.8192  156.8833 C.ar    1  UNL1        0.0147
     27 N         142.2538  134.4158  156.0089 N.am    1  UNL1       -0.2499
     28 C         142.8875  133.4102  156.9238 C.2     1  UNL1        0.4055
     29 O         143.9107  133.8503  157.9285 O.2     1  UNL1       -0.2261
     30 H         141.5823  134.1269  155.3495 H       1  UNL1        0.1582
     31 O         142.4981  131.9644  156.8340 O.3     1  UNL1       -0.4304
     32 C         143.4777  130.8981  157.2256 C.3     1  UNL1        0.2574
     33 C         141.8356  139.4660  163.7322 C.3     1  UNL1        0.0992
     34 C         140.6458  139.1699  164.5964 C.ar    1  UNL1       -0.0060
     35 C         139.9129  137.8700  164.4436 C.ar    1  UNL1       -0.0006
     36 C         138.7232  137.5739  165.3078 C.ar    1  UNL1        0.0294
     37 C         138.2664  138.5776  166.3248 C.ar    1  UNL1        0.1401
     38 F         137.0767  138.2814  167.1890 F       1  UNL1       -0.2042
     39 C         138.9993  139.8773  166.4774 C.ar    1  UNL1        0.0294
     40 C         140.1891  140.1735  165.6132 C.ar    1  UNL1       -0.0006
@<TRIPOS>BOND
     1    17    18    1
     2    18    14    1
     3    14    19    1
     4    19    20    1
     5    14    15   am
     6    15    16    2
     7    15     8    1
     8     8     9   ar
     9     9    10   ar
    10    10    11   ar
    11    11     1    1
    12     1     2    2
    13     2     3    1
    14     3     4    1
    15     4     5    1
    16     5    33    1
    17    33    34    1
    18    34    35   ar
    19    35    36   ar
    20    36    37   ar
    21    37    38    1
    22    37    39   ar
    23    39    40   ar
    24     5     6    1
    25     6     7    1
    26     1    21    1
    27    21    22   ar
    28    22    23   ar
    29    23    24   ar
    30    24    25   ar
    31    25    27    1
    32    27    28   am
    33    28    29    2
    34    28    31    1
    35    31    32    1
    36    25    26   ar
    37    11    12   ar
    38    12    13   ar
    39    13     8   ar
    40     7     2    1
    41    26    21   ar
    42    40    34   ar
    43    27    30    1
@<TRIPOS>MOLECULE
*****
 40 43 0 0 0
SMALL
GASTEIGER

@<TRIPOS>ATOM
      1 C         139.6625  141.7581  157.0458 C.2     1  UNL1       -0.0078
      2 C         140.4131  140.6275  156.4067 C.2     1  UNL1       -0.0414
      3 C         140.3326  140.4174  154.9236 C.3     1  UNL1        0.0394
      4 C         141.0832  139.2868  154.2845 C.3     1  UNL1        0.0767
      5 N         141.9142  138.3663  155.1284 N.3     1  UNL1       -0.2683
      6 C         141.9946  138.5764  156.6115 C.3     1  UNL1        0.0767
      7 C         141.2441  139.7070  157.2506 C.3     1  UNL1        0.0394
      8 C         139.9038  142.3884  161.4949 C.ar    1  UNL1        0.0536
      9 C         141.0135  142.8699  160.6079 C.ar    1  UNL1        0.0045
     10 C         140.9331  142.6597  159.1249 C.ar    1  UNL1        0.0001
     11 C         139.7430  141.9682  158.5288 C.ar    1  UNL1       -0.0006
     12 C         138.6333  141.4867  159.4158 C.ar    1  UNL1        0.0001
     13 C         138.7137  141.6968  160.8988 C.ar    1  UNL1        0.0045
     14 N         139.4755  143.8730  163.5835 N.am    1  UNL1       -0.2761
     15 C         139.9843  142.5985  162.9779 C.2     1  UNL1        0.2490
     16 O         140.5734  141.5341  163.8553 O.2     1  UNL1       -0.2699
     17 C         138.5815  144.9973  165.7484 C.3     1  UNL1        0.0233
     18 C         139.5559  144.0831  165.0665 C.3     1  UNL1        0.0938
     19 C         138.8863  144.9375  162.7061 C.3     1  UNL1        0.0938
     20 C         139.7724  145.9844  162.0989 C.3     1  UNL1        0.0233
     21 C         138.8316  142.6785  156.2018 C.ar    1  UNL1        0.0006
     22 C         137.3812  142.3761  155.9669 C.ar    1  UNL1        0.0001
     23 C         136.5503  143.2965  155.1230 C.ar    1  UNL1        0.0013
     24 C         137.1696  144.5194  154.5140 C.ar    1  UNL1        0.0148
     25 C         138.6199  144.8219  154.7488 C.ar    1  UNL1        0.0532
     26 C         139.4509  143.9014  155.5928 C.ar    1  UNL1        0.0147
     27 N         139.2392  146.0448  154.1398 N.am    1  UNL1       -0.2499
     28 C         139.3919  147.2939  154.9561 C.2     1  UNL1        0.4055
     29 O         138.9254  147.3201  156.3815 O.2     1  UNL1       -0.2261
     30 H         139.5453  146.0277  153.2043 H       1  UNL1        0.1582
     31 O         140.0112  148.5168  154.3471 O.3     1  UNL1       -0.4304
     32 C         140.6685  148.4337  153.0012 C.3     1  UNL1        0.2574
     33 C         142.6647  137.2357  154.4893 C.3     1  UNL1        0.0992
     34 C         142.6613  135.8780  155.1270 C.ar    1  UNL1       -0.0060
     35 C         143.7591  135.4909  156.0731 C.ar    1  UNL1       -0.0006
     36 C         143.7557  134.1332  156.7107 C.ar    1  UNL1        0.0294
     37 C         142.6544  133.1625  156.4022 C.ar    1  UNL1        0.1401
     38 F         142.6510  131.8048  157.0399 F       1  UNL1       -0.2042
     39 C         141.5567  133.5496  155.4562 C.ar    1  UNL1        0.0294
     40 C         141.5601  134.9073  154.8185 C.ar    1  UNL1       -0.0006
@<TRIPOS>BOND
     1    17    18    1
     2    18    14    1
     3    14    19    1
     4    19    20    1
     5    14    15   am
     6    15    16    2
     7    15     8    1
     8     8     9   ar
     9     9    10   ar
    10    10    11   ar
    11    11     1    1
    12     1     2    2
    13     2     3    1
    14     3     4    1
    15     4     5    1
    16     5    33    1
    17    33    34    1
    18    34    35   ar
    19    35    36   ar
    20    36    37   ar
    21    37    38    1
    22    37    39   ar
    23    39    40   ar
    24     5     6    1
    25     6     7    1
    26     1    21    1
    27    21    22   ar
    28    22    23   ar
    29    23    24   ar
    30    24    25   ar
    31    25    27    1
    32    27    28   am
    33    28    29    2
    34    28    31    1
    35    31    32    1
    36    25    26   ar
    37    11    12   ar
    38    12    13   ar
    39    13     8   ar
    40     7     2    1
    41    26    21   ar
    42    40    34   ar
    43    27    30    1
