@<TRIPOS>MOLECULE
*****
 31 35 0 0 0
SMALL
GASTEIGER

@<TRIPOS>ATOM
      1 C         137.8939  140.4462  156.9798 C.ar    1  UNL1        0.2229
      2 N         139.2750  140.1170  156.4958 N.ar    1  UNL1       -0.1970
      3 C         140.3112  139.6256  157.4626 C.ar    1  UNL1        0.1555
      4 C         139.9664  139.4633  158.9134 C.ar    1  UNL1        0.1486
      5 N         141.0026  138.9718  159.8802 N.ar    1  UNL1       -0.2363
      6 C         140.6577  138.8096  161.3309 C.ar    1  UNL1        0.1181
      7 C         139.2766  139.1388  161.8149 C.ar    1  UNL1        0.1021
      8 N         138.2404  139.6303  160.8481 N.ar    1  UNL1       -0.2236
      9 C         138.5853  139.7925  159.3974 C.ar    1  UNL1        0.1857
     10 N         137.5490  140.2840  158.4305 N.ar    1  UNL1       -0.1929
     11 C         136.6629  142.8108  152.5196 C.3     1  UNL1        0.0339
     12 C         136.2422  142.1200  153.7828 C.3     1  UNL1        0.1350
     13 C         137.2783  141.6285  154.7497 C.3     1  UNL1        0.1231
     14 N         136.8577  140.9377  156.0129 N.pl3   1  UNL1       -0.2732
     15 C         135.4009  140.7384  156.3094 C.3     1  UNL1        0.1231
     16 C         134.3647  141.2299  155.3425 C.3     1  UNL1        0.1350
     17 C         132.9078  141.0305  155.6389 C.3     1  UNL1        0.0339
     18 O         134.7854  141.9207  154.0793 O.3     1  UNL1       -0.3552
     19 N         141.6923  139.2963  156.9786 N.pl3   1  UNL1       -0.2885
     20 C         142.7720  140.3364  157.0277 C.3     1  UNL1        0.1242
     21 C         144.1531  140.0072  156.5438 C.3     1  UNL1        0.1636
     22 O         144.4545  138.6379  156.0107 O.3     1  UNL1       -0.3502
     23 C         143.3747  137.5978  155.9615 C.3     1  UNL1        0.1618
     24 C         141.9936  137.9270  156.4455 C.3     1  UNL1        0.1039
     25 C         140.9139  136.8869  156.3964 C.3     1  UNL1        0.0241
     26 C         138.9318  138.9766  163.2657 C.ar    1  UNL1        0.0192
     27 C         138.4634  140.1583  164.0620 C.ar    1  UNL1        0.0015
     28 C         138.1186  139.9960  165.5128 C.ar    1  UNL1        0.0000
     29 C         138.2421  138.6520  166.1673 C.ar    1  UNL1        0.0000
     30 C         138.7106  137.4702  165.3710 C.ar    1  UNL1        0.0000
     31 C         139.0554  137.6325  163.9202 C.ar    1  UNL1        0.0015
@<TRIPOS>BOND
     1    12    11    1
     2    12    13    1
     3    13    14    1
     4    14     1    1
     5     1     2   ar
     6     2     3   ar
     7     3    19    1
     8    19    20    1
     9    20    21    1
    10    21    22    1
    11    22    23    1
    12    23    24    1
    13    24    25    1
    14     3     4   ar
    15     4     5   ar
    16     5     6   ar
    17     6     7   ar
    18     7    26    1
    19    26    27   ar
    20    27    28   ar
    21    28    29   ar
    22    29    30   ar
    23    30    31   ar
    24     7     8   ar
    25     8     9   ar
    26     9    10   ar
    27    14    15    1
    28    15    16    1
    29    16    17    1
    30    16    18    1
    31    18    12    1
    32    10     1   ar
    33    24    19    1
    34     9     4   ar
    35    31    26   ar
@<TRIPOS>MOLECULE
*****
 31 35 0 0 0
SMALL
GASTEIGER

@<TRIPOS>ATOM
      1 C         137.8966  140.4353  156.9691 C.ar    1  UNL1        0.2229
      2 N         139.2762  140.1062  156.4809 N.ar    1  UNL1       -0.1970
      3 C         140.3155  139.6151  157.4445 C.ar    1  UNL1        0.1555
      4 C         139.9752  139.4532  158.8965 C.ar    1  UNL1        0.1486
      5 N         141.0145  138.9621  159.8601 N.ar    1  UNL1       -0.2363
      6 C         140.6742  138.8002  161.3120 C.ar    1  UNL1        0.1181
      7 C         139.2946  139.1294  161.8002 C.ar    1  UNL1        0.1021
      8 N         138.2553  139.6204  160.8365 N.ar    1  UNL1       -0.2236
      9 C         138.5956  139.7823  159.3847 C.ar    1  UNL1        0.1857
     10 N         137.5563  140.2734  158.4209 N.ar    1  UNL1       -0.1929
     11 C         132.9063  141.0180  155.6435 C.3     1  UNL1        0.0339
     12 C         134.3622  141.2177  155.3426 C.3     1  UNL1        0.1350
     13 C         135.4014  140.7267  156.3062 C.3     1  UNL1        0.1231
     14 N         136.8573  140.9264  156.0053 N.pl3   1  UNL1       -0.2732
     15 C         137.2739  141.6172  154.7407 C.3     1  UNL1        0.1231
     16 C         136.2346  142.1083  153.7771 C.3     1  UNL1        0.1350
     17 C         136.6511  142.7991  152.5124 C.3     1  UNL1        0.0339
     18 O         134.7787  141.9085  154.0780 O.3     1  UNL1       -0.3552
     19 N         141.6951  139.2860  156.9563 N.pl3   1  UNL1       -0.2885
     20 C         142.7682  140.3338  156.9780 C.3     1  UNL1        0.1242
     21 C         144.1479  140.0046  156.4898 C.3     1  UNL1        0.1636
     22 O         144.4544  138.6276  155.9799 O.3     1  UNL1       -0.3502
     23 C         143.3812  137.5798  155.9583 C.3     1  UNL1        0.1618
     24 C         142.0016  137.9089  156.4464 C.3     1  UNL1        0.1039
     25 C         140.9285  136.8611  156.4248 C.3     1  UNL1        0.0241
     26 C         138.9543  138.9674  163.2521 C.ar    1  UNL1        0.0192
     27 C         139.1133  137.6314  163.9152 C.ar    1  UNL1        0.0015
     28 C         138.7730  137.4695  165.3672 C.ar    1  UNL1        0.0000
     29 C         138.2737  138.6436  166.1559 C.ar    1  UNL1        0.0000
     30 C         138.1147  139.9797  165.4927 C.ar    1  UNL1        0.0000
     31 C         138.4550  140.1416  164.0409 C.ar    1  UNL1        0.0015
@<TRIPOS>BOND
     1    12    11    1
     2    12    13    1
     3    13    14    1
     4    14     1    1
     5     1     2   ar
     6     2     3   ar
     7     3    19    1
     8    19    20    1
     9    20    21    1
    10    21    22    1
    11    22    23    1
    12    23    24    1
    13    24    25    1
    14     3     4   ar
    15     4     5   ar
    16     5     6   ar
    17     6     7   ar
    18     7    26    1
    19    26    27   ar
    20    27    28   ar
    21    28    29   ar
    22    29    30   ar
    23    30    31   ar
    24     7     8   ar
    25     8     9   ar
    26     9    10   ar
    27    14    15    1
    28    15    16    1
    29    16    17    1
    30    16    18    1
    31    18    12    1
    32    10     1   ar
    33    24    19    1
    34     9     4   ar
    35    31    26   ar
@<TRIPOS>MOLECULE
*****
 31 35 0 0 0
SMALL
GASTEIGER

@<TRIPOS>ATOM
      1 C         140.3724  138.0910  156.7689 C.ar    1  UNL1        0.2229
      2 N         139.6538  139.2734  156.1895 N.ar    1  UNL1       -0.1970
      3 C         138.8767  140.1916  157.0854 C.ar    1  UNL1        0.1555
      4 C         138.8181  139.9276  158.5609 C.ar    1  UNL1        0.1486
      5 N         138.0410  140.8458  159.4569 N.ar    1  UNL1       -0.2363
      6 C         137.9824  140.5817  160.9322 C.ar    1  UNL1        0.1181
      7 C         138.7009  139.3994  161.5116 C.ar    1  UNL1        0.1021
      8 N         139.4780  138.4811  160.6157 N.ar    1  UNL1       -0.2236
      9 C         139.5366  138.7452  159.1403 C.ar    1  UNL1        0.1857
     10 N         140.3138  137.8269  158.2442 N.ar    1  UNL1       -0.1929
     11 C         141.5696  136.4050  152.0019 C.3     1  UNL1        0.0339
     12 C         141.7481  136.3297  153.4893 C.3     1  UNL1        0.1350
     13 C         140.9710  137.2480  154.3854 C.3     1  UNL1        0.1231
     14 N         141.1495  137.1727  155.8728 N.pl3   1  UNL1       -0.2732
     15 C         142.1051  136.1792  156.4642 C.3     1  UNL1        0.1231
     16 C         142.8822  135.2610  155.5681 C.3     1  UNL1        0.1350
     17 C         143.8379  134.2675  156.1595 C.3     1  UNL1        0.0339
     18 O         142.7037  135.3363  154.0807 O.3     1  UNL1       -0.3552
     19 N         138.1582  141.3740  156.5060 N.pl3   1  UNL1       -0.2885
     20 C         136.7450  141.2306  156.0242 C.3     1  UNL1        0.1242
     21 C         136.0264  142.4129  155.4448 C.3     1  UNL1        0.1636
     22 O         136.7211  143.7388  155.3472 O.3     1  UNL1       -0.3502
     23 C         138.1344  143.8823  155.8291 C.3     1  UNL1        0.1618
     24 C         138.8529  142.6999  156.4085 C.3     1  UNL1        0.1039
     25 C         140.2661  142.8434  156.8903 C.3     1  UNL1        0.0241
     26 C         138.6423  139.1353  162.9871 C.ar    1  UNL1        0.0192
     27 C         138.2088  140.2212  163.9267 C.ar    1  UNL1        0.0015
     28 C         138.1502  139.9571  165.4022 C.ar    1  UNL1        0.0000
     29 C         138.5251  138.6071  165.9379 C.ar    1  UNL1        0.0000
     30 C         138.9586  137.5212  164.9982 C.ar    1  UNL1        0.0000
     31 C         139.0172  137.7853  163.5228 C.ar    1  UNL1        0.0015
@<TRIPOS>BOND
     1    12    11    1
     2    12    13    1
     3    13    14    1
     4    14     1    1
     5     1     2   ar
     6     2     3   ar
     7     3    19    1
     8    19    20    1
     9    20    21    1
    10    21    22    1
    11    22    23    1
    12    23    24    1
    13    24    25    1
    14     3     4   ar
    15     4     5   ar
    16     5     6   ar
    17     6     7   ar
    18     7    26    1
    19    26    27   ar
    20    27    28   ar
    21    28    29   ar
    22    29    30   ar
    23    30    31   ar
    24     7     8   ar
    25     8     9   ar
    26     9    10   ar
    27    14    15    1
    28    15    16    1
    29    16    17    1
    30    16    18    1
    31    18    12    1
    32    10     1   ar
    33    24    19    1
    34     9     4   ar
    35    31    26   ar
@<TRIPOS>MOLECULE
*****
 31 35 0 0 0
SMALL
GASTEIGER

@<TRIPOS>ATOM
      1 C         140.0508  138.1360  156.7842 C.ar    1  UNL1        0.2229
      2 N         139.5892  139.4683  156.2723 N.ar    1  UNL1       -0.1970
      3 C         139.0295  140.4842  157.2233 C.ar    1  UNL1        0.1555
      4 C         138.9313  140.1679  158.6864 C.ar    1  UNL1        0.1486
      5 N         138.3716  141.1838  159.6374 N.ar    1  UNL1       -0.2363
      6 C         138.2734  140.8675  161.1003 C.ar    1  UNL1        0.1181
      7 C         138.7350  139.5353  161.6122 C.ar    1  UNL1        0.1021
      8 N         139.2948  138.5194  160.6612 N.ar    1  UNL1       -0.2236
      9 C         139.3929  138.8357  159.1983 C.ar    1  UNL1        0.1857
     10 N         139.9527  137.8197  158.2471 N.ar    1  UNL1       -0.1929
     11 C         143.5664  134.4773  155.6643 C.3     1  UNL1        0.0339
     12 C         142.3684  135.2907  155.2732 C.3     1  UNL1        0.1350
     13 C         141.8086  136.3066  156.2242 C.3     1  UNL1        0.1231
     14 N         140.6106  137.1201  155.8330 N.pl3   1  UNL1       -0.2732
     15 C         139.9723  136.9176  154.4908 C.3     1  UNL1        0.1231
     16 C         140.5321  135.9017  153.5398 C.3     1  UNL1        0.1350
     17 C         139.8939  135.6992  152.1975 C.3     1  UNL1        0.0339
     18 O         141.7301  135.0883  153.9310 O.3     1  UNL1       -0.3552
     19 N         138.5679  141.8164  156.7114 N.pl3   1  UNL1       -0.2885
     20 C         139.5293  142.9654  156.6369 C.3     1  UNL1        0.1242
     21 C         139.0677  144.2976  156.1250 C.3     1  UNL1        0.1636
     22 O         137.6446  144.4809  155.6876 O.3     1  UNL1       -0.3502
     23 C         136.6831  143.3320  155.7621 C.3     1  UNL1        0.1618
     24 C         137.1447  141.9997  156.2740 C.3     1  UNL1        0.1039
     25 C         136.1833  140.8508  156.3486 C.3     1  UNL1        0.0241
     26 C         138.6369  139.2190  163.0753 C.ar    1  UNL1        0.0192
     27 C         138.2120  140.2812  164.0454 C.ar    1  UNL1        0.0015
     28 C         138.1139  139.9649  165.5084 C.ar    1  UNL1        0.0000
     29 C         138.4406  138.5864  166.0013 C.ar    1  UNL1        0.0000
     30 C         138.8654  137.5241  165.0311 C.ar    1  UNL1        0.0000
     31 C         138.9636  137.8405  163.5681 C.ar    1  UNL1        0.0015
@<TRIPOS>BOND
     1    12    11    1
     2    12    13    1
     3    13    14    1
     4    14     1    1
     5     1     2   ar
     6     2     3   ar
     7     3    19    1
     8    19    20    1
     9    20    21    1
    10    21    22    1
    11    22    23    1
    12    23    24    1
    13    24    25    1
    14     3     4   ar
    15     4     5   ar
    16     5     6   ar
    17     6     7   ar
    18     7    26    1
    19    26    27   ar
    20    27    28   ar
    21    28    29   ar
    22    29    30   ar
    23    30    31   ar
    24     7     8   ar
    25     8     9   ar
    26     9    10   ar
    27    14    15    1
    28    15    16    1
    29    16    17    1
    30    16    18    1
    31    18    12    1
    32    10     1   ar
    33    24    19    1
    34     9     4   ar
    35    31    26   ar
@<TRIPOS>MOLECULE
*****
 31 35 0 0 0
SMALL
GASTEIGER

@<TRIPOS>ATOM
      1 C         142.8754  135.9296  156.2159 C.ar    1  UNL1        0.2229
      2 N         141.6212  136.6619  156.5909 N.ar    1  UNL1       -0.1970
      3 C         141.5736  138.1588  156.5086 C.ar    1  UNL1        0.1555
      4 C         142.7804  138.9235  156.0513 C.ar    1  UNL1        0.1486
      5 N         142.7328  140.4205  155.9690 N.ar    1  UNL1       -0.2363
      6 C         143.9395  141.1852  155.5118 C.ar    1  UNL1        0.1181
      7 C         145.1938  140.4528  155.1368 C.ar    1  UNL1        0.1021
      8 N         145.2413  138.9559  155.2191 N.ar    1  UNL1       -0.2236
      9 C         144.0346  138.1912  155.6764 C.ar    1  UNL1        0.1857
     10 N         144.0821  136.6942  155.7587 N.ar    1  UNL1       -0.1929
     11 C         140.9334  131.2876  154.9193 C.3     1  UNL1        0.0339
     12 C         141.9519  132.1116  155.6499 C.3     1  UNL1        0.1350
     13 C         141.9045  133.6085  155.5677 C.3     1  UNL1        0.1231
     14 N         142.9229  134.4325  156.2982 N.pl3   1  UNL1       -0.2732
     15 C         143.9889  133.7595  157.1111 C.3     1  UNL1        0.1231
     16 C         144.0363  132.2626  157.1934 C.3     1  UNL1        0.1350
     17 C         145.1023  131.5895  158.0063 C.3     1  UNL1        0.0339
     18 O         143.0179  131.4386  156.4628 O.3     1  UNL1       -0.3552
     19 N         140.3194  138.8911  156.8835 N.pl3   1  UNL1       -0.2885
     20 C         139.3575  139.3256  155.8177 C.3     1  UNL1        0.1242
     21 C         138.1033  140.0579  156.1927 C.3     1  UNL1        0.1636
     22 O         137.8109  140.3557  157.6334 O.3     1  UNL1       -0.3502
     23 C         138.7728  139.9212  158.6993 C.3     1  UNL1        0.1618
     24 C         140.0270  139.1889  158.3244 C.3     1  UNL1        0.1039
     25 C         140.9889  138.7544  159.3902 C.3     1  UNL1        0.0241
     26 C         146.4005  141.2176  154.6796 C.ar    1  UNL1        0.0192
     27 C         147.5424  141.4514  155.6237 C.ar    1  UNL1        0.0015
     28 C         148.7492  142.2161  155.1664 C.ar    1  UNL1        0.0000
     29 C         148.8140  142.7470  153.7650 C.ar    1  UNL1        0.0000
     30 C         147.6720  142.5132  152.8209 C.ar    1  UNL1        0.0000
     31 C         146.4653  141.7485  153.2781 C.ar    1  UNL1        0.0015
@<TRIPOS>BOND
     1    12    11    1
     2    12    13    1
     3    13    14    1
     4    14     1    1
     5     1     2   ar
     6     2     3   ar
     7     3    19    1
     8    19    20    1
     9    20    21    1
    10    21    22    1
    11    22    23    1
    12    23    24    1
    13    24    25    1
    14     3     4   ar
    15     4     5   ar
    16     5     6   ar
    17     6     7   ar
    18     7    26    1
    19    26    27   ar
    20    27    28   ar
    21    28    29   ar
    22    29    30   ar
    23    30    31   ar
    24     7     8   ar
    25     8     9   ar
    26     9    10   ar
    27    14    15    1
    28    15    16    1
    29    16    17    1
    30    16    18    1
    31    18    12    1
    32    10     1   ar
    33    24    19    1
    34     9     4   ar
    35    31    26   ar
@<TRIPOS>MOLECULE
*****
 31 35 0 0 0
SMALL
GASTEIGER

@<TRIPOS>ATOM
      1 C         141.7751  139.8057  164.3187 C.ar    1  UNL1        0.2229
      2 N         141.0754  141.1236  164.1659 N.ar    1  UNL1       -0.1970
      3 C         140.5634  141.5496  162.8219 C.ar    1  UNL1        0.1555
      4 C         140.7512  140.6575  161.6306 C.ar    1  UNL1        0.1486
      5 N         140.2392  141.0835  160.2866 N.ar    1  UNL1       -0.2363
      6 C         140.4270  140.1915  159.0954 C.ar    1  UNL1        0.1181
      7 C         141.1267  138.8735  159.2482 C.ar    1  UNL1        0.1021
      8 N         141.6386  138.4475  160.5923 N.ar    1  UNL1       -0.2236
      9 C         141.4509  139.3396  161.7834 C.ar    1  UNL1        0.1857
     10 N         141.9628  138.9136  163.1276 N.ar    1  UNL1       -0.1929
     11 C         145.0100  136.9353  167.1991 C.3     1  UNL1        0.0339
     12 C         143.9045  137.9445  167.1030 C.3     1  UNL1        0.1350
     13 C         143.3925  138.3705  165.7590 C.3     1  UNL1        0.1231
     14 N         142.2870  139.3797  165.6629 N.pl3   1  UNL1       -0.2732
     15 C         141.6934  139.9630  166.9108 C.3     1  UNL1        0.1231
     16 C         142.2054  139.5371  168.2548 C.3     1  UNL1        0.1350
     17 C         141.6118  140.1204  169.5028 C.3     1  UNL1        0.0339
     18 O         143.3109  138.5278  168.3509 O.3     1  UNL1       -0.3552
     19 N         139.8637  142.8676  162.6691 N.pl3   1  UNL1       -0.2885
     20 C         140.6225  144.0680  162.1861 C.3     1  UNL1        0.1242
     21 C         139.9228  145.3860  162.0333 C.3     1  UNL1        0.1636
     22 O         138.4644  145.5035  162.3634 O.3     1  UNL1       -0.3502
     23 C         137.7055  144.3031  162.8464 C.3     1  UNL1        0.1618
     24 C         138.4052  142.9851  162.9992 C.3     1  UNL1        0.1039
     25 C         137.6464  141.7847  163.4822 C.3     1  UNL1        0.0241
     26 C         141.3144  137.9814  158.0569 C.ar    1  UNL1        0.0192
     27 C         140.1704  137.7311  157.1197 C.ar    1  UNL1        0.0015
     28 C         140.3581  136.8390  155.9285 C.ar    1  UNL1        0.0000
     29 C         141.6899  136.1974  155.6745 C.ar    1  UNL1        0.0000
     30 C         142.8340  136.4478  156.6117 C.ar    1  UNL1        0.0000
     31 C         142.6462  137.3398  157.8029 C.ar    1  UNL1        0.0015
@<TRIPOS>BOND
     1    12    11    1
     2    12    13    1
     3    13    14    1
     4    14     1    1
     5     1     2   ar
     6     2     3   ar
     7     3    19    1
     8    19    20    1
     9    20    21    1
    10    21    22    1
    11    22    23    1
    12    23    24    1
    13    24    25    1
    14     3     4   ar
    15     4     5   ar
    16     5     6   ar
    17     6     7   ar
    18     7    26    1
    19    26    27   ar
    20    27    28   ar
    21    28    29   ar
    22    29    30   ar
    23    30    31   ar
    24     7     8   ar
    25     8     9   ar
    26     9    10   ar
    27    14    15    1
    28    15    16    1
    29    16    17    1
    30    16    18    1
    31    18    12    1
    32    10     1   ar
    33    24    19    1
    34     9     4   ar
    35    31    26   ar
@<TRIPOS>MOLECULE
*****
 31 35 0 0 0
SMALL
GASTEIGER

@<TRIPOS>ATOM
      1 C         144.0606  141.0076  159.2646 C.ar    1  UNL1        0.2229
      2 N         144.3522  142.0085  158.1862 N.ar    1  UNL1       -0.1970
      3 C         144.2498  141.6086  156.7441 C.ar    1  UNL1        0.1555
      4 C         143.8557  140.2077  156.3805 C.ar    1  UNL1        0.1486
      5 N         143.7533  139.8078  154.9384 N.ar    1  UNL1       -0.2363
      6 C         143.3592  138.4070  154.5748 C.ar    1  UNL1        0.1181
      7 C         143.0675  137.4060  155.6532 C.ar    1  UNL1        0.1021
      8 N         143.1699  137.8059  157.0953 N.ar    1  UNL1       -0.2236
      9 C         143.5640  139.2067  157.4589 C.ar    1  UNL1        0.1857
     10 N         143.6665  139.6067  158.9010 N.ar    1  UNL1       -0.1929
     11 C         143.8861  144.6762  162.9403 C.3     1  UNL1        0.0339
     12 C         144.0758  143.2419  162.5445 C.3     1  UNL1        0.1350
     13 C         143.9733  142.8419  161.1025 C.3     1  UNL1        0.1231
     14 N         144.1630  141.4075  160.7067 N.pl3   1  UNL1       -0.2732
     15 C         144.4551  140.3731  161.7530 C.3     1  UNL1        0.1231
     16 C         144.5575  140.7731  163.1950 C.3     1  UNL1        0.1350
     17 C         144.8496  139.7387  164.2414 C.3     1  UNL1        0.0339
     18 O         144.3679  142.2075  163.5908 O.3     1  UNL1       -0.3552
     19 N         144.5415  142.6096  155.6657 N.pl3   1  UNL1       -0.2885
     20 C         143.4410  143.4763  155.1294 C.3     1  UNL1        0.1242
     21 C         143.7327  144.4773  154.0509 C.3     1  UNL1        0.1636
     22 O         145.1248  144.6115  153.5088 O.3     1  UNL1       -0.3502
     23 C         146.2254  143.7448  154.0452 C.3     1  UNL1        0.1618
     24 C         145.9337  142.7438  155.1236 C.3     1  UNL1        0.1039
     25 C         147.0342  141.8771  155.6600 C.3     1  UNL1        0.0241
     26 C         142.6734  136.0051  155.2895 C.ar    1  UNL1        0.0192
     27 C         142.3146  135.6710  153.8720 C.ar    1  UNL1        0.0015
     28 C         141.9205  134.2701  153.5083 C.ar    1  UNL1        0.0000
     29 C         141.8852  133.2033  154.5622 C.ar    1  UNL1        0.0000
     30 C         142.2440  133.5375  155.9799 C.ar    1  UNL1        0.0000
     31 C         142.6381  134.9384  156.3435 C.ar    1  UNL1        0.0015
@<TRIPOS>BOND
     1    12    11    1
     2    12    13    1
     3    13    14    1
     4    14     1    1
     5     1     2   ar
     6     2     3   ar
     7     3    19    1
     8    19    20    1
     9    20    21    1
    10    21    22    1
    11    22    23    1
    12    23    24    1
    13    24    25    1
    14     3     4   ar
    15     4     5   ar
    16     5     6   ar
    17     6     7   ar
    18     7    26    1
    19    26    27   ar
    20    27    28   ar
    21    28    29   ar
    22    29    30   ar
    23    30    31   ar
    24     7     8   ar
    25     8     9   ar
    26     9    10   ar
    27    14    15    1
    28    15    16    1
    29    16    17    1
    30    16    18    1
    31    18    12    1
    32    10     1   ar
    33    24    19    1
    34     9     4   ar
    35    31    26   ar
@<TRIPOS>MOLECULE
*****
 31 35 0 0 0
SMALL
GASTEIGER

@<TRIPOS>ATOM
      1 C         143.3815  139.0697  159.2705 C.ar    1  UNL1        0.2229
      2 N         142.5892  138.1476  158.3918 N.ar    1  UNL1       -0.1970
      3 C         142.6849  138.2671  156.8997 C.ar    1  UNL1        0.1555
      4 C         143.5729  139.3088  156.2861 C.ar    1  UNL1        0.1486
      5 N         143.6686  139.4283  154.7940 N.ar    1  UNL1       -0.2363
      6 C         144.5565  140.4700  154.1805 C.ar    1  UNL1        0.1181
      7 C         145.3488  141.3921  155.0591 C.ar    1  UNL1        0.1021
      8 N         145.2531  141.2726  156.5512 N.ar    1  UNL1       -0.2236
      9 C         144.3651  140.2309  157.1647 C.ar    1  UNL1        0.1857
     10 N         144.2694  140.1114  158.6569 N.ar    1  UNL1       -0.1929
     11 C         141.0749  137.0969  163.4880 C.3     1  UNL1        0.0339
     12 C         142.1324  137.9637  162.8714 C.3     1  UNL1        0.1350
     13 C         142.2282  138.0833  161.3793 C.3     1  UNL1        0.1231
     14 N         143.2857  138.9502  160.7627 N.pl3   1  UNL1       -0.2732
     15 C         144.2475  139.6974  161.6382 C.3     1  UNL1        0.1231
     16 C         144.1517  139.5779  163.1303 C.3     1  UNL1        0.1350
     17 C         145.1135  140.3251  164.0059 C.3     1  UNL1        0.0339
     18 O         143.0942  138.7110  163.7469 O.3     1  UNL1       -0.3552
     19 N         141.8927  137.3449  156.0211 N.pl3   1  UNL1       -0.2885
     20 C         140.4868  137.6993  155.6364 C.3     1  UNL1        0.1242
     21 C         139.6946  136.7771  154.7578 C.3     1  UNL1        0.1636
     22 O         140.3082  135.5006  154.2638 O.3     1  UNL1       -0.3502
     23 C         141.7141  135.1463  154.6485 C.3     1  UNL1        0.1618
     24 C         142.5063  136.0684  155.5271 C.3     1  UNL1        0.1039
     25 C         143.9122  135.7141  155.9117 C.3     1  UNL1        0.0241
     26 C         146.2368  142.4338  154.4455 C.ar    1  UNL1        0.0192
     27 C         145.6723  143.7700  154.0635 C.ar    1  UNL1        0.0015
     28 C         146.5603  144.8117  153.4499 C.ar    1  UNL1        0.0000
     29 C         148.0127  144.5171  153.2184 C.ar    1  UNL1        0.0000
     30 C         148.5772  143.1809  153.6004 C.ar    1  UNL1        0.0000
     31 C         147.6892  142.1393  154.2139 C.ar    1  UNL1        0.0015
@<TRIPOS>BOND
     1    12    11    1
     2    12    13    1
     3    13    14    1
     4    14     1    1
     5     1     2   ar
     6     2     3   ar
     7     3    19    1
     8    19    20    1
     9    20    21    1
    10    21    22    1
    11    22    23    1
    12    23    24    1
    13    24    25    1
    14     3     4   ar
    15     4     5   ar
    16     5     6   ar
    17     6     7   ar
    18     7    26    1
    19    26    27   ar
    20    27    28   ar
    21    28    29   ar
    22    29    30   ar
    23    30    31   ar
    24     7     8   ar
    25     8     9   ar
    26     9    10   ar
    27    14    15    1
    28    15    16    1
    29    16    17    1
    30    16    18    1
    31    18    12    1
    32    10     1   ar
    33    24    19    1
    34     9     4   ar
    35    31    26   ar
@<TRIPOS>MOLECULE
*****
 31 35 0 0 0
SMALL
GASTEIGER

@<TRIPOS>ATOM
      1 C         143.6580  142.4302  159.6161 C.ar    1  UNL1        0.2229
      2 N         142.8189  141.3031  159.0910 N.ar    1  UNL1       -0.1970
      3 C         143.2338  140.5759  157.8465 C.ar    1  UNL1        0.1555
      4 C         144.4878  140.9756  157.1269 C.ar    1  UNL1        0.1486
      5 N         144.9027  140.2484  155.8824 N.ar    1  UNL1       -0.2363
      6 C         146.1567  140.6482  155.1629 C.ar    1  UNL1        0.1181
      7 C         146.9958  141.7752  155.6880 C.ar    1  UNL1        0.1021
      8 N         146.5809  142.5025  156.9326 N.ar    1  UNL1       -0.2236
      9 C         145.3269  142.1027  157.6520 C.ar    1  UNL1        0.1857
     10 N         144.9119  142.8300  158.8966 N.ar    1  UNL1       -0.1929
     11 C         140.3919  145.6352  162.0779 C.3     1  UNL1        0.0339
     12 C         141.6100  144.7600  162.0915 C.3     1  UNL1        0.1350
     13 C         142.0249  144.0327  160.8470 C.3     1  UNL1        0.1231
     14 N         143.2430  143.1574  160.8607 N.pl3   1  UNL1       -0.2732
     15 C         144.0461  143.0094  162.1189 C.3     1  UNL1        0.1231
     16 C         143.6312  143.7367  163.3634 C.3     1  UNL1        0.1350
     17 C         144.4343  143.5886  164.6217 C.3     1  UNL1        0.0339
     18 O         142.4131  144.6119  163.3497 O.3     1  UNL1       -0.3552
     19 N         142.3947  139.4488  157.3214 N.pl3   1  UNL1       -0.2885
     20 C         142.7261  138.0328  157.6887 C.3     1  UNL1        0.1242
     21 C         141.8870  136.9057  157.1637 C.3     1  UNL1        0.1636
     22 O         140.7165  137.1947  156.2713 O.3     1  UNL1       -0.3502
     23 C         140.3851  138.6108  155.9039 C.3     1  UNL1        0.1618
     24 C         141.2242  139.7379  156.4289 C.3     1  UNL1        0.1039
     25 C         140.8928  141.1539  156.0616 C.3     1  UNL1        0.0241
     26 C         148.2498  142.1750  154.9685 C.ar    1  UNL1        0.0192
     27 C         149.5674  141.5830  155.3724 C.ar    1  UNL1        0.0015
     28 C         150.8215  141.9827  154.6529 C.ar    1  UNL1        0.0000
     29 C         150.7578  142.9746  153.5294 C.ar    1  UNL1        0.0000
     30 C         149.4400  143.5666  153.1255 C.ar    1  UNL1        0.0000
     31 C         148.1861  143.1668  153.8450 C.ar    1  UNL1        0.0015
@<TRIPOS>BOND
     1    12    11    1
     2    12    13    1
     3    13    14    1
     4    14     1    1
     5     1     2   ar
     6     2     3   ar
     7     3    19    1
     8    19    20    1
     9    20    21    1
    10    21    22    1
    11    22    23    1
    12    23    24    1
    13    24    25    1
    14     3     4   ar
    15     4     5   ar
    16     5     6   ar
    17     6     7   ar
    18     7    26    1
    19    26    27   ar
    20    27    28   ar
    21    28    29   ar
    22    29    30   ar
    23    30    31   ar
    24     7     8   ar
    25     8     9   ar
    26     9    10   ar
    27    14    15    1
    28    15    16    1
    29    16    17    1
    30    16    18    1
    31    18    12    1
    32    10     1   ar
    33    24    19    1
    34     9     4   ar
    35    31    26   ar
