@<TRIPOS>MOLECULE
*****
 31 35 0 0 0
SMALL
GASTEIGER

@<TRIPOS>ATOM
      1 C         138.6702  144.8622  165.3686 C.3     1  UNL1        0.0212
      2 C         139.6608  144.2324  164.4347 C.3     1  UNL1        0.0705
      3 N         141.0198  143.8416  164.9352 N.pl3   1  UNL1       -0.3322
      4 H         141.7681  144.4787  164.8760 H       1  UNL1        0.1468
      5 C         141.2387  142.4802  165.5257 C.ar    1  UNL1        0.0754
      6 C         140.8833  142.2186  166.9593 C.ar    1  UNL1        0.1722
      7 F         140.3090  143.3183  167.8024 F       1  UNL1       -0.2012
      8 C         141.1022  140.8572  167.5498 C.ar    1  UNL1        0.1296
      9 N         141.6764  139.7575  166.7067 N.ar    1  UNL1       -0.2414
     10 C         142.0319  140.0191  165.2732 C.ar    1  UNL1        0.0835
     11 C         142.6061  138.9194  164.4301 C.ar    1  UNL1        0.0305
     12 C         142.9615  139.1810  162.9965 C.ar    1  UNL1        0.0592
     13 CL        143.5358  138.0813  162.1534 Cl      1  UNL1       -0.0822
     14 C         142.7427  140.5424  162.4059 C.ar    1  UNL1        0.0115
     15 C         142.1684  141.6422  163.2490 C.ar    1  UNL1        0.0037
     16 C         141.8130  141.3805  164.6827 C.ar    1  UNL1        0.0331
     17 C         139.2924  143.9933  163.0005 C.3     1  UNL1        0.0365
     18 C         137.8755  143.6635  162.6351 C.3     1  UNL1        0.0703
     19 N         137.3304  142.2928  162.9074 N.3     1  UNL1       -0.2974
     20 H         137.3928  141.7720  162.0326 H       1  UNL1        0.1232
     21 C         137.9540  141.4347  163.9678 C.3     1  UNL1        0.0685
     22 C         138.5265  140.0956  163.6083 C.3     1  UNL1        0.0145
     23 C         138.6171  139.0157  164.6454 C.3     1  UNL1        0.0013
     24 C         139.1896  137.6767  164.2859 C.3     1  UNL1        0.0000
     25 C         139.6715  137.4176  162.8893 C.3     1  UNL1        0.0000
     26 C         139.5810  138.4974  161.8522 C.3     1  UNL1        0.0000
     27 C         138.3611  139.7487  164.6370 C.3     1  UNL1        0.0000
     28 C         138.1351  139.2749  166.0420 C.3     1  UNL1        0.0000
     29 C         138.7076  137.9359  165.6825 C.3     1  UNL1        0.0000
     30 C         138.0446  140.3547  165.0049 C.3     1  UNL1        0.0013
     31 C         139.0085  139.8364  162.2117 C.3     1  UNL1        0.0013
@<TRIPOS>BOND
     1     1     2    1
     2     2    17    1
     3    17    18    1
     4    18    19    1
     5    19    21    1
     6    21    22    1
     7    22    23    1
     8    23    24    1
     9    24    25    1
    10    25    26    1
    11    26    27    1
    12    27    28    1
    13    28    29    1
    14    28    30    1
    15    26    31    1
    16     2     3    1
    17     3     5    1
    18     5     6   ar
    19     6     7    1
    20     6     8   ar
    21     8     9   ar
    22     9    10   ar
    23    10    11   ar
    24    11    12   ar
    25    12    13    1
    26    12    14   ar
    27    14    15   ar
    28    15    16   ar
    29    30    22    1
    30    16     5   ar
    31    31    22    1
    32    16    10   ar
    33    29    24    1
    34    19    20    1
    35     3     4    1
@<TRIPOS>MOLECULE
*****
 31 35 0 0 0
SMALL
GASTEIGER

@<TRIPOS>ATOM
      1 C         138.4660  140.2635  160.3757 C.3     1  UNL1        0.0212
      2 C         137.8457  139.6786  161.6099 C.3     1  UNL1        0.0705
      3 N         137.2246  140.5793  162.6361 N.pl3   1  UNL1       -0.3322
      4 H         136.2549  140.5414  162.8019 H       1  UNL1        0.1468
      5 C         138.0810  141.5377  163.4095 C.ar    1  UNL1        0.0754
      6 C         138.3766  142.8981  162.8511 C.ar    1  UNL1        0.1722
      7 F         137.8159  143.3001  161.5191 F       1  UNL1       -0.2012
      8 C         139.2329  143.8564  163.6245 C.ar    1  UNL1        0.1296
      9 N         139.7936  143.4544  164.9564 N.ar    1  UNL1       -0.2414
     10 C         139.4980  142.0940  165.5149 C.ar    1  UNL1        0.0835
     11 C         140.0587  141.6920  166.8468 C.ar    1  UNL1        0.0305
     12 C         139.7630  140.3316  167.4053 C.ar    1  UNL1        0.0592
     13 CL        140.3237  139.9296  168.7372 Cl      1  UNL1       -0.0822
     14 C         138.9067  139.3732  166.6318 C.ar    1  UNL1        0.0115
     15 C         138.3460  139.7752  165.2999 C.ar    1  UNL1        0.0037
     16 C         138.6417  141.1357  164.7414 C.ar    1  UNL1        0.0331
     17 C         137.8466  138.1931  161.8180 C.3     1  UNL1        0.0365
     18 C         138.7780  137.5767  162.8192 C.3     1  UNL1        0.0703
     19 N         140.2454  137.4858  162.5219 N.3     1  UNL1       -0.2974
     20 H         140.4385  138.1618  161.7829 H       1  UNL1        0.1232
     21 C         141.2479  137.7351  163.6095 C.3     1  UNL1        0.0685
     22 C         141.8115  139.1109  163.8090 C.3     1  UNL1        0.0145
     23 C         142.5506  139.4428  165.0714 C.3     1  UNL1        0.0013
     24 C         143.1141  140.8185  165.2709 C.3     1  UNL1        0.0000
     25 C         142.9386  141.8623  164.2081 C.3     1  UNL1        0.0000
     26 C         142.1995  141.5304  162.9457 C.3     1  UNL1        0.0000
     27 C         142.1980  138.8100  164.7918 C.3     1  UNL1        0.0000
     28 C         142.7261  138.3990  166.1342 C.3     1  UNL1        0.0000
     29 C         143.2896  139.7746  166.3338 C.3     1  UNL1        0.0000
     30 C         141.9870  138.0671  164.8719 C.3     1  UNL1        0.0013
     31 C         141.6360  140.1547  162.7462 C.3     1  UNL1        0.0013
@<TRIPOS>BOND
     1     1     2    1
     2     2    17    1
     3    17    18    1
     4    18    19    1
     5    19    21    1
     6    21    22    1
     7    22    23    1
     8    23    24    1
     9    24    25    1
    10    25    26    1
    11    26    27    1
    12    27    28    1
    13    28    29    1
    14    28    30    1
    15    26    31    1
    16     2     3    1
    17     3     5    1
    18     5     6   ar
    19     6     7    1
    20     6     8   ar
    21     8     9   ar
    22     9    10   ar
    23    10    11   ar
    24    11    12   ar
    25    12    13    1
    26    12    14   ar
    27    14    15   ar
    28    15    16   ar
    29    30    22    1
    30    16     5   ar
    31    31    22    1
    32    16    10   ar
    33    29    24    1
    34    19    20    1
    35     3     4    1
@<TRIPOS>MOLECULE
*****
 31 35 0 0 0
SMALL
GASTEIGER

@<TRIPOS>ATOM
      1 C         144.9784  142.1251  162.5915 C.3     1  UNL1        0.0212
      2 C         144.4507  142.5300  163.9361 C.3     1  UNL1        0.0705
      3 N         144.0644  141.4815  164.9369 N.pl3   1  UNL1       -0.3322
      4 H         144.7002  140.7677  165.1722 H       1  UNL1        0.1468
      5 C         142.7094  141.5208  165.5791 C.ar    1  UNL1        0.0754
      6 C         142.5423  142.1263  166.9413 C.ar    1  UNL1        0.1722
      7 F         143.7302  142.6926  167.6612 F       1  UNL1       -0.2012
      8 C         141.1874  142.1656  167.5834 C.ar    1  UNL1        0.1296
      9 N         139.9995  141.5994  166.8635 N.ar    1  UNL1       -0.2414
     10 C         140.1665  140.9939  165.5014 C.ar    1  UNL1        0.0835
     11 C         138.9787  140.4277  164.7815 C.ar    1  UNL1        0.0305
     12 C         139.1457  139.8222  163.4194 C.ar    1  UNL1        0.0592
     13 CL        137.9578  139.2559  162.6994 Cl      1  UNL1       -0.0822
     14 C         140.5008  139.7829  162.7771 C.ar    1  UNL1        0.0115
     15 C         141.6887  140.3491  163.4970 C.ar    1  UNL1        0.0037
     16 C         141.5215  140.9546  164.8592 C.ar    1  UNL1        0.0331
     17 C         144.3093  143.9832  164.2797 C.3     1  UNL1        0.0365
     18 C         143.8688  144.9621  163.2322 C.3     1  UNL1        0.0703
     19 N         142.4475  145.4409  163.2033 N.3     1  UNL1       -0.2974
     20 H         142.1555  145.4377  162.2260 H       1  UNL1        0.1232
     21 C         141.3920  144.7036  163.9730 C.3     1  UNL1        0.0685
     22 C         140.2392  144.0729  163.2496 C.3     1  UNL1        0.0145
     23 C         138.8825  144.0362  163.8883 C.3     1  UNL1        0.0013
     24 C         137.7298  143.4055  163.1649 C.3     1  UNL1        0.0000
     25 C         137.9337  142.8115  161.8028 C.3     1  UNL1        0.0000
     26 C         139.2904  142.8481  161.1640 C.3     1  UNL1        0.0000
     27 C         139.5796  144.3085  164.0953 C.3     1  UNL1        0.0000
     28 C         138.6786  144.6303  165.2505 C.3     1  UNL1        0.0000
     29 C         137.5258  143.9996  164.5271 C.3     1  UNL1        0.0000
     30 C         140.0352  144.6670  164.6117 C.3     1  UNL1        0.0013
     31 C         140.4431  143.4788  161.8874 C.3     1  UNL1        0.0013
@<TRIPOS>BOND
     1     1     2    1
     2     2    17    1
     3    17    18    1
     4    18    19    1
     5    19    21    1
     6    21    22    1
     7    22    23    1
     8    23    24    1
     9    24    25    1
    10    25    26    1
    11    26    27    1
    12    27    28    1
    13    28    29    1
    14    28    30    1
    15    26    31    1
    16     2     3    1
    17     3     5    1
    18     5     6   ar
    19     6     7    1
    20     6     8   ar
    21     8     9   ar
    22     9    10   ar
    23    10    11   ar
    24    11    12   ar
    25    12    13    1
    26    12    14   ar
    27    14    15   ar
    28    15    16   ar
    29    30    22    1
    30    16     5   ar
    31    31    22    1
    32    16    10   ar
    33    29    24    1
    34    19    20    1
    35     3     4    1
@<TRIPOS>MOLECULE
*****
 31 35 0 0 0
SMALL
GASTEIGER

@<TRIPOS>ATOM
      1 C         137.3760  138.1997  167.1540 C.3     1  UNL1        0.0212
      2 C         138.3573  139.2377  166.6959 C.3     1  UNL1        0.0705
      3 N         138.2185  139.8519  165.3345 N.pl3   1  UNL1       -0.3322
      4 H         137.4645  140.4547  165.1409 H       1  UNL1        0.1468
      5 C         139.2285  139.5478  164.2679 C.ar    1  UNL1        0.0754
      6 C         139.3951  138.1421  163.7717 C.ar    1  UNL1        0.1722
      7 F         138.5517  137.0405  164.3420 F       1  UNL1       -0.2012
      8 C         140.4050  137.8380  162.7052 C.ar    1  UNL1        0.1296
      9 N         141.2483  138.9396  162.1349 N.ar    1  UNL1       -0.2414
     10 C         141.0817  140.3453  162.6311 C.ar    1  UNL1        0.0835
     11 C         141.9251  141.4469  162.0607 C.ar    1  UNL1        0.0305
     12 C         141.7585  142.8525  162.5569 C.ar    1  UNL1        0.0592
     13 CL        142.6018  143.9541  161.9866 Cl      1  UNL1       -0.0822
     14 C         140.7485  143.1567  163.6235 C.ar    1  UNL1        0.0115
     15 C         139.9052  142.0551  164.1938 C.ar    1  UNL1        0.0037
     16 C         140.0718  140.6494  163.6976 C.ar    1  UNL1        0.0331
     17 C         139.4773  139.6614  167.5992 C.3     1  UNL1        0.0365
     18 C         139.8549  141.1097  167.6971 C.3     1  UNL1        0.0703
     19 N         141.2819  141.5279  167.4997 N.3     1  UNL1       -0.2974
     20 H         141.6695  141.6991  168.4275 H       1  UNL1        0.1232
     21 C         142.2396  140.6160  166.7919 C.3     1  UNL1        0.0685
     22 C         143.2620  141.1848  165.8530 C.3     1  UNL1        0.0145
     23 C         143.9724  140.2867  164.8842 C.3     1  UNL1        0.0013
     24 C         144.9947  140.8555  163.9455 C.3     1  UNL1        0.0000
     25 C         145.3066  142.3224  163.9756 C.3     1  UNL1        0.0000
     26 C         144.5961  143.2205  164.9444 C.3     1  UNL1        0.0000
     27 C         143.4304  140.1852  165.4309 C.3     1  UNL1        0.0000
     28 C         143.6605  138.8197  164.8542 C.3     1  UNL1        0.0000
     29 C         144.6829  139.3885  163.9154 C.3     1  UNL1        0.0000
     30 C         142.9501  139.7178  165.8230 C.3     1  UNL1        0.0013
     31 C         143.5738  142.6517  165.8831 C.3     1  UNL1        0.0013
@<TRIPOS>BOND
     1     1     2    1
     2     2    17    1
     3    17    18    1
     4    18    19    1
     5    19    21    1
     6    21    22    1
     7    22    23    1
     8    23    24    1
     9    24    25    1
    10    25    26    1
    11    26    27    1
    12    27    28    1
    13    28    29    1
    14    28    30    1
    15    26    31    1
    16     2     3    1
    17     3     5    1
    18     5     6   ar
    19     6     7    1
    20     6     8   ar
    21     8     9   ar
    22     9    10   ar
    23    10    11   ar
    24    11    12   ar
    25    12    13    1
    26    12    14   ar
    27    14    15   ar
    28    15    16   ar
    29    30    22    1
    30    16     5   ar
    31    31    22    1
    32    16    10   ar
    33    29    24    1
    34    19    20    1
    35     3     4    1
@<TRIPOS>MOLECULE
*****
 31 35 0 0 0
SMALL
GASTEIGER

@<TRIPOS>ATOM
      1 C         139.0588  137.7447  163.2365 C.3     1  UNL1        0.0212
      2 C         139.9167  138.6424  162.3949 C.3     1  UNL1        0.0705
      3 N         141.4038  138.6581  162.5908 N.pl3   1  UNL1       -0.3322
      4 H         141.9964  138.2996  161.8911 H       1  UNL1        0.1468
      5 C         141.9881  139.2200  163.8530 C.ar    1  UNL1        0.0754
      6 C         142.1656  138.3394  165.0542 C.ar    1  UNL1        0.1722
      7 F         141.7590  136.8969  164.9933 F       1  UNL1       -0.2012
      8 C         142.7498  138.9013  166.3163 C.ar    1  UNL1        0.1296
      9 N         143.1565  140.3439  166.3771 N.ar    1  UNL1       -0.2414
     10 C         142.9789  141.2245  165.1759 C.ar    1  UNL1        0.0835
     11 C         143.3855  142.6670  165.2368 C.ar    1  UNL1        0.0305
     12 C         143.2080  143.5477  164.0356 C.ar    1  UNL1        0.0592
     13 CL        143.6146  144.9902  164.0965 Cl      1  UNL1       -0.0822
     14 C         142.6237  142.9857  162.7735 C.ar    1  UNL1        0.0115
     15 C         142.2171  141.5432  162.7126 C.ar    1  UNL1        0.0037
     16 C         142.3947  140.6626  163.9139 C.ar    1  UNL1        0.0331
     17 C         139.2876  139.5242  161.3573 C.3     1  UNL1        0.0365
     18 C         137.7939  139.6016  161.2446 C.3     1  UNL1        0.0703
     19 N         137.0453  140.7006  161.9387 N.3     1  UNL1       -0.2974
     20 H         136.0569  140.4511  161.9041 H       1  UNL1        0.1232
     21 C         137.3577  141.0349  163.3672 C.3     1  UNL1        0.0685
     22 C         138.1136  142.2880  163.6963 C.3     1  UNL1        0.0145
     23 C         139.0006  142.3333  164.9050 C.3     1  UNL1        0.0013
     24 C         139.7565  143.5865  165.2340 C.3     1  UNL1        0.0000
     25 C         139.6253  144.7943  164.3543 C.3     1  UNL1        0.0000
     26 C         138.7383  144.7490  163.1455 C.3     1  UNL1        0.0000
     27 C         138.5439  141.7967  164.5790 C.3     1  UNL1        0.0000
     28 C         139.1318  141.1255  165.7848 C.3     1  UNL1        0.0000
     29 C         139.8876  142.3786  166.1138 C.3     1  UNL1        0.0000
     30 C         138.2447  141.0802  164.5760 C.3     1  UNL1        0.0013
     31 C         137.9825  143.4959  162.8165 C.3     1  UNL1        0.0013
@<TRIPOS>BOND
     1     1     2    1
     2     2    17    1
     3    17    18    1
     4    18    19    1
     5    19    21    1
     6    21    22    1
     7    22    23    1
     8    23    24    1
     9    24    25    1
    10    25    26    1
    11    26    27    1
    12    27    28    1
    13    28    29    1
    14    28    30    1
    15    26    31    1
    16     2     3    1
    17     3     5    1
    18     5     6   ar
    19     6     7    1
    20     6     8   ar
    21     8     9   ar
    22     9    10   ar
    23    10    11   ar
    24    11    12   ar
    25    12    13    1
    26    12    14   ar
    27    14    15   ar
    28    15    16   ar
    29    30    22    1
    30    16     5   ar
    31    31    22    1
    32    16    10   ar
    33    29    24    1
    34    19    20    1
    35     3     4    1
@<TRIPOS>MOLECULE
*****
 31 35 0 0 0
SMALL
GASTEIGER

@<TRIPOS>ATOM
      1 C         140.0693  143.0894  166.9661 C.3     1  UNL1        0.0212
      2 C         140.5465  143.1956  165.5479 C.3     1  UNL1        0.0705
      3 N         141.9114  142.6964  165.1766 N.pl3   1  UNL1       -0.3322
      4 H         142.6346  143.3366  164.9856 H       1  UNL1        0.1468
      5 C         142.1744  141.2218  165.0961 C.ar    1  UNL1        0.0754
      6 C         142.6091  140.4697  166.3189 C.ar    1  UNL1        0.1722
      7 F         142.7807  141.1921  167.6222 F       1  UNL1       -0.2012
      8 C         142.8720  138.9951  166.2384 C.ar    1  UNL1        0.1296
      9 N         142.7004  138.2727  164.9351 N.ar    1  UNL1       -0.2414
     10 C         142.2657  139.0248  163.7123 C.ar    1  UNL1        0.0835
     11 C         142.0940  138.3024  162.4090 C.ar    1  UNL1        0.0305
     12 C         141.6594  139.0545  161.1861 C.ar    1  UNL1        0.0592
     13 CL        141.4877  138.3321  159.8828 Cl      1  UNL1       -0.0822
     14 C         141.3964  140.5292  161.2666 C.ar    1  UNL1        0.0115
     15 C         141.5680  141.2516  162.5699 C.ar    1  UNL1        0.0037
     16 C         142.0027  140.4994  163.7928 C.ar    1  UNL1        0.0331
     17 C         139.6589  143.8010  164.5012 C.3     1  UNL1        0.0365
     18 C         138.1764  143.8645  164.7205 C.3     1  UNL1        0.0703
     19 N         137.3267  142.6570  164.4556 N.3     1  UNL1       -0.2974
     20 H         136.4274  142.9985  164.1164 H       1  UNL1        0.1232
     21 C         137.7888  141.6135  163.4823 C.3     1  UNL1        0.0685
     22 C         138.2284  140.2677  163.9779 C.3     1  UNL1        0.0145
     23 C         138.2949  139.1052  163.0324 C.3     1  UNL1        0.0013
     24 C         138.7345  137.7595  163.5280 C.3     1  UNL1        0.0000
     25 C         139.1076  137.5763  164.9693 C.3     1  UNL1        0.0000
     26 C         139.0412  138.7388  165.9149 C.3     1  UNL1        0.0000
     27 C         138.0988  139.8539  162.9691 C.3     1  UNL1        0.0000
     28 C         137.9218  139.2885  161.5911 C.3     1  UNL1        0.0000
     29 C         138.3614  137.9428  162.0868 C.3     1  UNL1        0.0000
     30 C         137.8553  140.4510  162.5367 C.3     1  UNL1        0.0013
     31 C         138.6016  140.0845  165.4192 C.3     1  UNL1        0.0013
@<TRIPOS>BOND
     1     1     2    1
     2     2    17    1
     3    17    18    1
     4    18    19    1
     5    19    21    1
     6    21    22    1
     7    22    23    1
     8    23    24    1
     9    24    25    1
    10    25    26    1
    11    26    27    1
    12    27    28    1
    13    28    29    1
    14    28    30    1
    15    26    31    1
    16     2     3    1
    17     3     5    1
    18     5     6   ar
    19     6     7    1
    20     6     8   ar
    21     8     9   ar
    22     9    10   ar
    23    10    11   ar
    24    11    12   ar
    25    12    13    1
    26    12    14   ar
    27    14    15   ar
    28    15    16   ar
    29    30    22    1
    30    16     5   ar
    31    31    22    1
    32    16    10   ar
    33    29    24    1
    34    19    20    1
    35     3     4    1
@<TRIPOS>MOLECULE
*****
 31 35 0 0 0
SMALL
GASTEIGER

@<TRIPOS>ATOM
      1 C         145.6495  141.7013  163.8535 C.3     1  UNL1        0.0212
      2 C         144.5584  141.5669  162.8329 C.3     1  UNL1        0.0705
      3 N         143.8049  140.2761  162.7060 N.pl3   1  UNL1       -0.3322
      4 H         143.9730  139.6813  161.9398 H       1  UNL1        0.1468
      5 C         142.7954  139.8916  163.7467 C.ar    1  UNL1        0.0754
      6 C         143.2263  139.1277  164.9635 C.ar    1  UNL1        0.1722
      7 F         144.6667  138.7482  165.1397 F       1  UNL1       -0.2012
      8 C         142.2167  138.7432  166.0042 C.ar    1  UNL1        0.1296
      9 N         140.7762  139.1227  165.8280 N.ar    1  UNL1       -0.2414
     10 C         140.3453  139.8867  164.6112 C.ar    1  UNL1        0.0835
     11 C         138.9049  140.2661  164.4350 C.ar    1  UNL1        0.0305
     12 C         138.4739  141.0301  163.2182 C.ar    1  UNL1        0.0592
     13 CL        137.0335  141.4096  163.0420 Cl      1  UNL1       -0.0822
     14 C         139.4835  141.4146  162.1775 C.ar    1  UNL1        0.0115
     15 C         140.9240  141.0351  162.3537 C.ar    1  UNL1        0.0037
     16 C         141.3549  140.2711  163.5706 C.ar    1  UNL1        0.0331
     17 C         144.2208  142.7233  161.9392 C.3     1  UNL1        0.0365
     18 C         144.5777  144.1202  162.3531 C.3     1  UNL1        0.0703
     19 N         143.5177  145.0389  162.8846 N.3     1  UNL1       -0.2974
     20 H         143.5151  145.8638  162.2846 H       1  UNL1        0.1232
     21 C         142.0966  144.5686  162.9801 C.3     1  UNL1        0.0685
     22 C         141.5873  143.9753  164.2603 C.3     1  UNL1        0.0145
     23 C         140.1481  144.1471  164.6461 C.3     1  UNL1        0.0013
     24 C         139.6389  143.5539  165.9263 C.3     1  UNL1        0.0000
     25 C         140.5689  142.7889  166.8205 C.3     1  UNL1        0.0000
     26 C         142.0082  142.6171  166.4347 C.3     1  UNL1        0.0000
     27 C         140.5859  144.3713  164.0454 C.3     1  UNL1        0.0000
     28 C         139.2180  144.9121  163.7519 C.3     1  UNL1        0.0000
     29 C         138.7088  144.3189  165.0320 C.3     1  UNL1        0.0000
     30 C         140.6572  144.7403  163.3660 C.3     1  UNL1        0.0013
     31 C         142.5174  143.2103  165.1545 C.3     1  UNL1        0.0013
@<TRIPOS>BOND
     1     1     2    1
     2     2    17    1
     3    17    18    1
     4    18    19    1
     5    19    21    1
     6    21    22    1
     7    22    23    1
     8    23    24    1
     9    24    25    1
    10    25    26    1
    11    26    27    1
    12    27    28    1
    13    28    29    1
    14    28    30    1
    15    26    31    1
    16     2     3    1
    17     3     5    1
    18     5     6   ar
    19     6     7    1
    20     6     8   ar
    21     8     9   ar
    22     9    10   ar
    23    10    11   ar
    24    11    12   ar
    25    12    13    1
    26    12    14   ar
    27    14    15   ar
    28    15    16   ar
    29    30    22    1
    30    16     5   ar
    31    31    22    1
    32    16    10   ar
    33    29    24    1
    34    19    20    1
    35     3     4    1
@<TRIPOS>MOLECULE
*****
 31 35 0 0 0
SMALL
GASTEIGER

@<TRIPOS>ATOM
      1 C         140.4771  145.0506  162.1056 C.3     1  UNL1        0.0212
      2 C         140.2616  144.6062  163.5220 C.3     1  UNL1        0.0705
      3 N         141.4348  144.2225  164.3743 N.pl3   1  UNL1       -0.3322
      4 H         141.9485  144.9172  164.8462 H       1  UNL1        0.1468
      5 C         141.8252  142.7803  164.5076 C.ar    1  UNL1        0.0754
      6 C         142.5518  142.0936  163.3894 C.ar    1  UNL1        0.1722
      7 F         142.8882  142.8490  162.1380 F       1  UNL1       -0.2012
      8 C         142.9422  140.6515  163.5228 C.ar    1  UNL1        0.1296
      9 N         142.6059  139.8960  164.7742 N.ar    1  UNL1       -0.2414
     10 C         141.8792  140.5827  165.8924 C.ar    1  UNL1        0.0835
     11 C         141.5429  139.8273  167.1439 C.ar    1  UNL1        0.0305
     12 C         140.8162  140.5140  168.2620 C.ar    1  UNL1        0.0592
     13 CL        140.4799  139.7586  169.5135 Cl      1  UNL1       -0.0822
     14 C         140.4258  141.9562  168.1288 C.ar    1  UNL1        0.0115
     15 C         140.7621  142.7116  166.8773 C.ar    1  UNL1        0.0037
     16 C         141.4888  142.0249  165.7591 C.ar    1  UNL1        0.0331
     17 C         138.8730  144.5456  164.0860 C.3     1  UNL1        0.0365
     18 C         137.7554  143.9710  163.2671 C.3     1  UNL1        0.0703
     19 N         137.5726  142.4843  163.1860 N.3     1  UNL1       -0.2974
     20 H         137.9738  142.1864  162.2968 H       1  UNL1        0.1232
     21 C         138.1590  141.5977  164.2443 C.3     1  UNL1        0.0685
     22 C         138.7531  140.2727  163.8681 C.3     1  UNL1        0.0145
     23 C         138.6844  139.1207  164.8263 C.3     1  UNL1        0.0013
     24 C         139.2786  137.7958  164.4500 C.3     1  UNL1        0.0000
     25 C         139.9414  137.6229  163.1156 C.3     1  UNL1        0.0000
     26 C         140.0102  138.7749  162.1574 C.3     1  UNL1        0.0000
     27 C         138.4439  139.8589  164.8371 C.3     1  UNL1        0.0000
     28 C         138.0215  139.2936  166.1607 C.3     1  UNL1        0.0000
     29 C         138.6157  137.9688  165.7844 C.3     1  UNL1        0.0000
     30 C         138.0902  140.4456  165.2025 C.3     1  UNL1        0.0013
     31 C         139.4160  140.0998  162.5336 C.3     1  UNL1        0.0013
@<TRIPOS>BOND
     1     1     2    1
     2     2    17    1
     3    17    18    1
     4    18    19    1
     5    19    21    1
     6    21    22    1
     7    22    23    1
     8    23    24    1
     9    24    25    1
    10    25    26    1
    11    26    27    1
    12    27    28    1
    13    28    29    1
    14    28    30    1
    15    26    31    1
    16     2     3    1
    17     3     5    1
    18     5     6   ar
    19     6     7    1
    20     6     8   ar
    21     8     9   ar
    22     9    10   ar
    23    10    11   ar
    24    11    12   ar
    25    12    13    1
    26    12    14   ar
    27    14    15   ar
    28    15    16   ar
    29    30    22    1
    30    16     5   ar
    31    31    22    1
    32    16    10   ar
    33    29    24    1
    34    19    20    1
    35     3     4    1
@<TRIPOS>MOLECULE
*****
 31 35 0 0 0
SMALL
GASTEIGER

@<TRIPOS>ATOM
      1 C         142.7283  139.6205  167.0411 C.3     1  UNL1        0.0212
      2 C         143.1520  140.9226  166.4286 C.3     1  UNL1        0.0705
      3 N         143.6548  140.9584  165.0158 N.pl3   1  UNL1       -0.3322
      4 H         144.6149  141.0842  164.8380 H       1  UNL1        0.1468
      5 C         142.6946  140.8025  163.8739 C.ar    1  UNL1        0.0754
      6 C         142.3030  139.4326  163.4049 C.ar    1  UNL1        0.1722
      7 F         142.8714  138.2185  164.0779 F       1  UNL1       -0.2012
      8 C         141.3429  139.2768  162.2631 C.ar    1  UNL1        0.1296
      9 N         140.7744  140.4909  161.5901 N.ar    1  UNL1       -0.2414
     10 C         141.1661  141.8608  162.0590 C.ar    1  UNL1        0.0835
     11 C         140.5977  143.0749  161.3861 C.ar    1  UNL1        0.0305
     12 C         140.9893  144.4448  161.8550 C.ar    1  UNL1        0.0592
     13 CL        140.4209  145.6589  161.1820 Cl      1  UNL1       -0.0822
     14 C         141.9495  144.6006  162.9969 C.ar    1  UNL1        0.0115
     15 C         142.5179  143.3866  163.6699 C.ar    1  UNL1        0.0037
     16 C         142.1262  142.0166  163.2009 C.ar    1  UNL1        0.0331
     17 C         143.0730  142.1887  167.2288 C.3     1  UNL1        0.0365
     18 C         141.9523  142.3900  168.2053 C.3     1  UNL1        0.0703
     19 N         140.5298  142.3653  167.7299 N.3     1  UNL1       -0.2974
     20 H         139.9592  142.7382  168.4887 H       1  UNL1        0.1232
     21 C         140.1408  143.1121  166.4885 C.3     1  UNL1        0.0685
     22 C         139.2977  142.4428  165.4438 C.3     1  UNL1        0.0145
     23 C         138.5012  143.2706  164.4793 C.3     1  UNL1        0.0013
     24 C         137.6582  142.6013  163.4347 C.3     1  UNL1        0.0000
     25 C         137.6117  141.1042  163.3545 C.3     1  UNL1        0.0000
     26 C         138.4083  140.2763  164.3189 C.3     1  UNL1        0.0000
     27 C         138.9807  143.4255  165.0701 C.3     1  UNL1        0.0000
     28 C         138.5477  144.7677  164.5595 C.3     1  UNL1        0.0000
     29 C         137.7047  144.0984  163.5149 C.3     1  UNL1        0.0000
     30 C         139.3442  143.9399  165.5240 C.3     1  UNL1        0.0013
     31 C         139.2513  140.9456  165.3636 C.3     1  UNL1        0.0013
@<TRIPOS>BOND
     1     1     2    1
     2     2    17    1
     3    17    18    1
     4    18    19    1
     5    19    21    1
     6    21    22    1
     7    22    23    1
     8    23    24    1
     9    24    25    1
    10    25    26    1
    11    26    27    1
    12    27    28    1
    13    28    29    1
    14    28    30    1
    15    26    31    1
    16     2     3    1
    17     3     5    1
    18     5     6   ar
    19     6     7    1
    20     6     8   ar
    21     8     9   ar
    22     9    10   ar
    23    10    11   ar
    24    11    12   ar
    25    12    13    1
    26    12    14   ar
    27    14    15   ar
    28    15    16   ar
    29    30    22    1
    30    16     5   ar
    31    31    22    1
    32    16    10   ar
    33    29    24    1
    34    19    20    1
    35     3     4    1
