@<TRIPOS>MOLECULE
*****
 21 23 0 0 0
SMALL
GASTEIGER

@<TRIPOS>ATOM
      1 C         137.9343  140.4908  163.1133 C.3     1  UNL1        0.0798
      2 C         138.3601  139.1377  163.6010 C.3     1  UNL1        0.0421
      3 C         139.1944  139.0159  164.8417 C.3     1  UNL1        0.0973
      4 N         139.6028  140.2472  165.5947 N.pl3   1  UNL1       -0.2870
      5 C         139.1770  141.6004  165.1070 C.ar    1  UNL1        0.0488
      6 C         139.5854  142.8317  165.8600 C.ar    1  UNL1        0.0146
      7 C         139.1597  144.1847  165.3724 C.ar    1  UNL1        0.0013
      8 C         138.3254  144.3065  164.1317 C.ar    1  UNL1       -0.0002
      9 C         137.9170  143.0752  163.3787 C.ar    1  UNL1       -0.0017
     10 C         138.3428  141.7222  163.8664 C.ar    1  UNL1        0.0057
     11 C         140.4370  140.1254  166.8353 C.ar    1  UNL1        0.0525
     12 C         141.9290  140.0146  166.7280 C.ar    1  UNL1        0.0157
     13 C         142.7633  139.8928  167.9686 C.ar    1  UNL1        0.0135
     14 C         142.1055  139.8819  169.3166 C.ar    1  UNL1        0.0683
     15 CL        142.9397  139.7601  170.5573 Cl      1  UNL1       -0.0814
     16 C         140.6134  139.9927  169.4240 C.ar    1  UNL1        0.0694
     17 CL        139.9556  139.9817  170.7720 Cl      1  UNL1       -0.0813
     18 C         139.7792  140.1145  168.1834 C.ar    1  UNL1        0.0271
     19 C         137.4390  139.8000  160.6583 C.3     1  UNL1        0.0861
     20 N         137.1001  140.6125  161.8727 N.3     1  UNL1       -0.2939
     21 H         136.1454  140.3667  162.1345 H       1  UNL1        0.1235
@<TRIPOS>BOND
     1    19    20    1
     2    20     1    1
     3     1     2    1
     4     2     3    1
     5     3     4    1
     6     4    11    1
     7    11    12   ar
     8    12    13   ar
     9    13    14   ar
    10    14    15    1
    11    14    16   ar
    12    16    17    1
    13    16    18   ar
    14     4     5    1
    15     5     6   ar
    16     6     7   ar
    17     7     8   ar
    18     8     9   ar
    19     9    10   ar
    20    10     1    1
    21    18    11   ar
    22    10     5   ar
    23    20    21    1
@<TRIPOS>MOLECULE
*****
 21 23 0 0 0
SMALL
GASTEIGER

@<TRIPOS>ATOM
      1 C         140.7198  144.9943  163.5930 C.3     1  UNL1        0.0798
      2 C         139.3974  144.8957  164.2940 C.3     1  UNL1        0.0421
      3 C         139.2464  144.0006  165.4881 C.3     1  UNL1        0.0973
      4 N         140.4178  143.2041  165.9813 N.pl3   1  UNL1       -0.2870
      5 C         141.7403  143.3026  165.2802 C.ar    1  UNL1        0.0488
      6 C         142.9117  142.5060  165.7733 C.ar    1  UNL1        0.0146
      7 C         144.2342  142.6046  165.0723 C.ar    1  UNL1        0.0013
      8 C         144.3851  143.4997  163.8782 C.ar    1  UNL1       -0.0002
      9 C         143.2137  144.2963  163.3851 C.ar    1  UNL1       -0.0017
     10 C         141.8913  144.1977  164.0861 C.ar    1  UNL1        0.0057
     11 C         140.2668  142.3089  167.1754 C.ar    1  UNL1        0.0525
     12 C         139.8370  140.8833  166.9945 C.ar    1  UNL1        0.0157
     13 C         139.6860  139.9882  168.1886 C.ar    1  UNL1        0.0135
     14 C         139.9649  140.5187  169.5637 C.ar    1  UNL1        0.0683
     15 CL        139.8139  139.6236  170.7578 Cl      1  UNL1       -0.0814
     16 C         140.3947  141.9444  169.7446 C.ar    1  UNL1        0.0694
     17 CL        140.6736  142.4749  171.1196 Cl      1  UNL1       -0.0813
     18 C         140.5457  142.8395  168.5505 C.ar    1  UNL1        0.0271
     19 C         139.6566  146.3469  161.6461 C.3     1  UNL1        0.0861
     20 N         140.8708  145.8894  162.3988 N.3     1  UNL1       -0.2939
     21 H         141.3522  146.7295  162.7196 H       1  UNL1        0.1235
@<TRIPOS>BOND
     1    19    20    1
     2    20     1    1
     3     1     2    1
     4     2     3    1
     5     3     4    1
     6     4    11    1
     7    11    12   ar
     8    12    13   ar
     9    13    14   ar
    10    14    15    1
    11    14    16   ar
    12    16    17    1
    13    16    18   ar
    14     4     5    1
    15     5     6   ar
    16     6     7   ar
    17     7     8   ar
    18     8     9   ar
    19     9    10   ar
    20    10     1    1
    21    18    11   ar
    22    10     5   ar
    23    20    21    1
@<TRIPOS>MOLECULE
*****
 21 23 0 0 0
SMALL
GASTEIGER

@<TRIPOS>ATOM
      1 C         143.7154  143.2530  163.6038 C.3     1  UNL1        0.0798
      2 C         144.2445  142.2180  164.5518 C.3     1  UNL1        0.0421
      3 C         143.3785  141.7087  165.6657 C.3     1  UNL1        0.0973
      4 N         141.9835  142.2343  165.8315 N.pl3   1  UNL1       -0.2870
      5 C         141.4543  143.2694  164.8834 C.ar    1  UNL1        0.0488
      6 C         140.0593  143.7950  165.0492 C.ar    1  UNL1        0.0146
      7 C         139.5303  144.8300  164.1011 C.ar    1  UNL1        0.0013
      8 C         140.3963  145.3394  162.9873 C.ar    1  UNL1       -0.0002
      9 C         141.7913  144.8137  162.8215 C.ar    1  UNL1       -0.0017
     10 C         142.3203  143.7787  163.7695 C.ar    1  UNL1        0.0057
     11 C         141.1175  141.7250  166.9453 C.ar    1  UNL1        0.0525
     12 C         140.3529  140.4457  166.7759 C.ar    1  UNL1        0.0157
     13 C         139.4869  139.9364  167.8897 C.ar    1  UNL1        0.0135
     14 C         139.3855  140.7063  169.1730 C.ar    1  UNL1        0.0683
     15 CL        138.5195  140.1970  170.2868 Cl      1  UNL1       -0.0814
     16 C         140.1501  141.9857  169.3425 C.ar    1  UNL1        0.0694
     17 CL        140.0486  142.7557  170.6257 Cl      1  UNL1       -0.0813
     18 C         141.0161  142.4950  168.2286 C.ar    1  UNL1        0.0271
     19 C         144.8107  142.9176  161.2719 C.3     1  UNL1        0.0861
     20 N         144.5814  143.7624  162.4900 N.3     1  UNL1       -0.2939
     21 H         144.1640  144.6357  162.1683 H       1  UNL1        0.1235
@<TRIPOS>BOND
     1    19    20    1
     2    20     1    1
     3     1     2    1
     4     2     3    1
     5     3     4    1
     6     4    11    1
     7    11    12   ar
     8    12    13   ar
     9    13    14   ar
    10    14    15    1
    11    14    16   ar
    12    16    17    1
    13    16    18   ar
    14     4     5    1
    15     5     6   ar
    16     6     7   ar
    17     7     8   ar
    18     8     9   ar
    19     9    10   ar
    20    10     1    1
    21    18    11   ar
    22    10     5   ar
    23    20    21    1
@<TRIPOS>MOLECULE
*****
 21 23 0 0 0
SMALL
GASTEIGER

@<TRIPOS>ATOM
      1 C         142.9214  138.3416  163.0576 C.3     1  UNL1        0.0798
      2 C         144.0302  139.0110  163.8142 C.3     1  UNL1        0.0421
      3 C         143.7675  139.5924  165.1718 C.3     1  UNL1        0.0973
      4 N         142.3961  139.5045  165.7727 N.pl3   1  UNL1       -0.2870
      5 C         141.2872  138.8351  165.0161 C.ar    1  UNL1        0.0488
      6 C         139.9157  138.7471  165.6171 C.ar    1  UNL1        0.0146
      7 C         138.8069  138.0778  164.8605 C.ar    1  UNL1        0.0013
      8 C         139.0695  137.4963  163.5030 C.ar    1  UNL1       -0.0002
      9 C         140.4410  137.5843  162.9020 C.ar    1  UNL1       -0.0017
     10 C         141.5498  138.2536  163.6586 C.ar    1  UNL1        0.0057
     11 C         142.1334  140.0859  167.1303 C.ar    1  UNL1        0.0525
     12 C         142.5902  139.3575  168.3593 C.ar    1  UNL1        0.0157
     13 C         142.3275  139.9389  169.7169 C.ar    1  UNL1        0.0135
     14 C         141.6080  141.2487  169.8454 C.ar    1  UNL1        0.0683
     15 CL        141.3453  141.8302  171.2029 Cl      1  UNL1       -0.0814
     16 C         141.1511  141.9772  168.6163 C.ar    1  UNL1        0.0694
     17 CL        140.4316  143.2871  168.7447 Cl      1  UNL1       -0.0813
     18 C         141.4138  141.3958  167.2587 C.ar    1  UNL1        0.0271
     19 C         143.7321  138.6276  160.6059 C.3     1  UNL1        0.0861
     20 N         143.1841  137.7602  161.7001 N.3     1  UNL1       -0.2939
     21 H         143.8474  136.9963  161.8303 H       1  UNL1        0.1235
@<TRIPOS>BOND
     1    19    20    1
     2    20     1    1
     3     1     2    1
     4     2     3    1
     5     3     4    1
     6     4    11    1
     7    11    12   ar
     8    12    13   ar
     9    13    14   ar
    10    14    15    1
    11    14    16   ar
    12    16    17    1
    13    16    18   ar
    14     4     5    1
    15     5     6   ar
    16     6     7   ar
    17     7     8   ar
    18     8     9   ar
    19     9    10   ar
    20    10     1    1
    21    18    11   ar
    22    10     5   ar
    23    20    21    1
@<TRIPOS>MOLECULE
*****
 21 23 0 0 0
SMALL
GASTEIGER

@<TRIPOS>ATOM
      1 C         141.7128  144.5520  162.1288 C.3     1  UNL1        0.0798
      2 C         143.0609  143.9984  162.4836 C.3     1  UNL1        0.0421
      3 C         143.2109  143.0913  163.6689 C.3     1  UNL1        0.0973
      4 N         142.0128  142.7379  164.4992 N.pl3   1  UNL1       -0.2870
      5 C         140.6646  143.2915  164.1443 C.ar    1  UNL1        0.0488
      6 C         139.4664  142.9381  164.9747 C.ar    1  UNL1        0.0146
      7 C         138.1183  143.4917  164.6198 C.ar    1  UNL1        0.0013
      8 C         137.9683  144.3988  163.4346 C.ar    1  UNL1       -0.0002
      9 C         139.1664  144.7522  162.6043 C.ar    1  UNL1       -0.0017
     10 C         140.5146  144.1986  162.9591 C.ar    1  UNL1        0.0057
     11 C         142.1628  141.8308  165.6844 C.ar    1  UNL1        0.0525
     12 C         141.7880  140.3827  165.5728 C.ar    1  UNL1        0.0157
     13 C         141.9380  139.4756  166.7580 C.ar    1  UNL1        0.0135
     14 C         142.4628  140.0166  168.0548 C.ar    1  UNL1        0.0683
     15 CL        142.6128  139.1095  169.2400 Cl      1  UNL1       -0.0814
     16 C         142.8377  141.4648  168.1665 C.ar    1  UNL1        0.0694
     17 CL        143.3625  142.0058  169.4633 Cl      1  UNL1       -0.0813
     18 C         142.6877  142.3719  166.9813 C.ar    1  UNL1        0.0271
     19 C         141.3580  144.8784  159.5758 C.3     1  UNL1        0.0861
     20 N         141.5628  145.4591  160.9436 N.3     1  UNL1       -0.2939
     21 H         140.7598  146.0593  161.1319 H       1  UNL1        0.1235
@<TRIPOS>BOND
     1    19    20    1
     2    20     1    1
     3     1     2    1
     4     2     3    1
     5     3     4    1
     6     4    11    1
     7    11    12   ar
     8    12    13   ar
     9    13    14   ar
    10    14    15    1
    11    14    16   ar
    12    16    17    1
    13    16    18   ar
    14     4     5    1
    15     5     6   ar
    16     6     7   ar
    17     7     8   ar
    18     8     9   ar
    19     9    10   ar
    20    10     1    1
    21    18    11   ar
    22    10     5   ar
    23    20    21    1
@<TRIPOS>MOLECULE
*****
 21 23 0 0 0
SMALL
GASTEIGER

@<TRIPOS>ATOM
      1 C         138.4549  139.2949  166.9710 C.3     1  UNL1        0.0798
      2 C         138.5972  139.3493  165.4788 C.3     1  UNL1        0.0421
      3 C         139.5290  140.3425  164.8500 C.3     1  UNL1        0.0973
      4 N         140.3184  141.2813  165.7133 N.pl3   1  UNL1       -0.2870
      5 C         140.1761  141.2269  167.2056 C.ar    1  UNL1        0.0488
      6 C         140.9655  142.1657  168.0690 C.ar    1  UNL1        0.0146
      7 C         140.8232  142.1113  169.5612 C.ar    1  UNL1        0.0013
      8 C         139.8914  141.1181  170.1900 C.ar    1  UNL1       -0.0002
      9 C         139.1020  140.1793  169.3267 C.ar    1  UNL1       -0.0017
     10 C         139.2443  140.2337  167.8345 C.ar    1  UNL1        0.0057
     11 C         141.2501  142.2744  165.0845 C.ar    1  UNL1        0.0525
     12 C         140.7412  143.6240  164.6727 C.ar    1  UNL1        0.0157
     13 C         141.6729  144.6171  164.0439 C.ar    1  UNL1        0.0135
     14 C         143.1137  144.2608  163.8268 C.ar    1  UNL1        0.0683
     15 CL        144.0454  145.2539  163.1980 Cl      1  UNL1       -0.0814
     16 C         143.6227  142.9112  164.2386 C.ar    1  UNL1        0.0694
     17 CL        145.0635  142.5548  164.0215 Cl      1  UNL1       -0.0813
     18 C         142.6910  141.9180  164.8674 C.ar    1  UNL1        0.0271
     19 C         137.2975  136.9690  166.9497 C.3     1  UNL1        0.0861
     20 N         137.5231  138.3018  167.5998 N.3     1  UNL1       -0.2939
     21 H         137.8801  138.1155  168.5370 H       1  UNL1        0.1235
@<TRIPOS>BOND
     1    19    20    1
     2    20     1    1
     3     1     2    1
     4     2     3    1
     5     3     4    1
     6     4    11    1
     7    11    12   ar
     8    12    13   ar
     9    13    14   ar
    10    14    15    1
    11    14    16   ar
    12    16    17    1
    13    16    18   ar
    14     4     5    1
    15     5     6   ar
    16     6     7   ar
    17     7     8   ar
    18     8     9   ar
    19     9    10   ar
    20    10     1    1
    21    18    11   ar
    22    10     5   ar
    23    20    21    1
@<TRIPOS>MOLECULE
*****
 21 23 0 0 0
SMALL
GASTEIGER

@<TRIPOS>ATOM
      1 C         143.8022  139.2277  162.5358 C.3     1  UNL1        0.0798
      2 C         142.8780  138.1628  163.0473 C.3     1  UNL1        0.0421
      3 C         142.2074  138.3280  164.3789 C.3     1  UNL1        0.0973
      4 N         142.4611  139.5580  165.1989 N.pl3   1  UNL1       -0.2870
      5 C         143.3854  140.6230  164.6874 C.ar    1  UNL1        0.0488
      6 C         143.6391  141.8531  165.5074 C.ar    1  UNL1        0.0146
      7 C         144.5633  142.9180  164.9959 C.ar    1  UNL1        0.0013
      8 C         145.2339  142.7528  163.6643 C.ar    1  UNL1       -0.0002
      9 C         144.9802  141.5227  162.8443 C.ar    1  UNL1       -0.0017
     10 C         144.0560  140.4578  163.3558 C.ar    1  UNL1        0.0057
     11 C         141.7905  139.7232  166.5305 C.ar    1  UNL1        0.0525
     12 C         140.3438  140.1135  166.5984 C.ar    1  UNL1        0.0157
     13 C         139.6733  140.2787  167.9300 C.ar    1  UNL1        0.0135
     14 C         140.4494  140.0536  169.1936 C.ar    1  UNL1        0.0683
     15 CL        139.7789  140.2187  170.5252 Cl      1  UNL1       -0.0814
     16 C         141.8962  139.6632  169.1257 C.ar    1  UNL1        0.0694
     17 CL        142.6724  139.4381  170.3894 Cl      1  UNL1       -0.0813
     18 C         142.5668  139.4980  167.7942 C.ar    1  UNL1        0.0271
     19 C         143.6531  139.0499  159.9481 C.3     1  UNL1        0.0861
     20 N         144.4728  139.0625  161.2042 N.3     1  UNL1       -0.2939
     21 H         145.1394  139.8291  161.1131 H       1  UNL1        0.1235
@<TRIPOS>BOND
     1    19    20    1
     2    20     1    1
     3     1     2    1
     4     2     3    1
     5     3     4    1
     6     4    11    1
     7    11    12   ar
     8    12    13   ar
     9    13    14   ar
    10    14    15    1
    11    14    16   ar
    12    16    17    1
    13    16    18   ar
    14     4     5    1
    15     5     6   ar
    16     6     7   ar
    17     7     8   ar
    18     8     9   ar
    19     9    10   ar
    20    10     1    1
    21    18    11   ar
    22    10     5   ar
    23    20    21    1
@<TRIPOS>MOLECULE
*****
 21 23 0 0 0
SMALL
GASTEIGER

@<TRIPOS>ATOM
      1 C         141.6917  140.4702  168.5051 C.3     1  UNL1        0.0798
      2 C         140.8926  141.7128  168.7646 C.3     1  UNL1        0.0421
      3 C         140.5832  142.6542  167.6386 C.3     1  UNL1        0.0973
      4 N         141.0727  142.3531  166.2531 N.pl3   1  UNL1       -0.2870
      5 C         141.8717  141.1103  165.9935 C.ar    1  UNL1        0.0488
      6 C         142.3613  140.8092  164.6081 C.ar    1  UNL1        0.0146
      7 C         143.1603  139.5665  164.3486 C.ar    1  UNL1        0.0013
      8 C         143.4698  138.6251  165.4746 C.ar    1  UNL1       -0.0002
      9 C         142.9802  138.9263  166.8601 C.ar    1  UNL1       -0.0017
     10 C         142.1812  140.1689  167.1196 C.ar    1  UNL1        0.0057
     11 C         140.7632  143.2945  165.1271 C.ar    1  UNL1        0.0525
     12 C         141.8574  144.1193  164.5169 C.ar    1  UNL1        0.0157
     13 C         141.5479  145.0608  163.3909 C.ar    1  UNL1        0.0135
     14 C         140.1442  145.1774  162.8751 C.ar    1  UNL1        0.0683
     15 CL        139.8347  146.1188  161.7490 Cl      1  UNL1       -0.0814
     16 C         139.0500  144.3525  163.4853 C.ar    1  UNL1        0.0694
     17 CL        137.6463  144.4691  162.9694 Cl      1  UNL1       -0.0813
     18 C         139.3594  143.4111  164.6113 C.ar    1  UNL1        0.0271
     19 C         142.9977  139.9185  170.6822 C.3     1  UNL1        0.0861
     20 N         142.0011  139.5287  169.6311 N.3     1  UNL1       -0.2939
     21 H         141.1208  139.3466  170.1131 H       1  UNL1        0.1235
@<TRIPOS>BOND
     1    19    20    1
     2    20     1    1
     3     1     2    1
     4     2     3    1
     5     3     4    1
     6     4    11    1
     7    11    12   ar
     8    12    13   ar
     9    13    14   ar
    10    14    15    1
    11    14    16   ar
    12    16    17    1
    13    16    18   ar
    14     4     5    1
    15     5     6   ar
    16     6     7   ar
    17     7     8   ar
    18     8     9   ar
    19     9    10   ar
    20    10     1    1
    21    18    11   ar
    22    10     5   ar
    23    20    21    1
@<TRIPOS>MOLECULE
*****
 21 23 0 0 0
SMALL
GASTEIGER

@<TRIPOS>ATOM
      1 C         139.7031  140.6886  168.9992 C.3     1  UNL1        0.0798
      2 C         140.7359  141.7447  169.2599 C.3     1  UNL1        0.0421
      3 C         141.5518  142.2919  168.1264 C.3     1  UNL1        0.0973
      4 N         141.3348  141.7831  166.7321 N.pl3   1  UNL1       -0.2870
      5 C         140.3020  140.7270  166.4713 C.ar    1  UNL1        0.0488
      6 C         140.0850  140.2182  165.0771 C.ar    1  UNL1        0.0146
      7 C         139.0522  139.1622  164.8163 C.ar    1  UNL1        0.0013
      8 C         138.2363  138.6150  165.9499 C.ar    1  UNL1       -0.0002
      9 C         138.4533  139.1237  167.3441 C.ar    1  UNL1       -0.0017
     10 C         139.4861  140.1798  167.6049 C.ar    1  UNL1        0.0057
     11 C         142.1507  142.3304  165.5986 C.ar    1  UNL1        0.0525
     12 C         141.6017  143.4340  164.7438 C.ar    1  UNL1        0.0157
     13 C         142.4176  143.9812  163.6103 C.ar    1  UNL1        0.0135
     14 C         143.7824  143.4249  163.3316 C.ar    1  UNL1        0.0683
     15 CL        144.5983  143.9721  162.1980 Cl      1  UNL1       -0.0814
     16 C         144.3314  142.3212  164.1864 C.ar    1  UNL1        0.0694
     17 CL        145.6962  141.7649  163.9076 Cl      1  UNL1       -0.0813
     18 C         143.5156  141.7740  165.3199 C.ar    1  UNL1        0.0271
     19 C         139.5659  139.4684  171.2887 C.3     1  UNL1        0.0861
     20 N         138.8872  140.1414  170.1327 N.3     1  UNL1       -0.2939
     21 H         138.3561  140.9227  170.5173 H       1  UNL1        0.1235
@<TRIPOS>BOND
     1    19    20    1
     2    20     1    1
     3     1     2    1
     4     2     3    1
     5     3     4    1
     6     4    11    1
     7    11    12   ar
     8    12    13   ar
     9    13    14   ar
    10    14    15    1
    11    14    16   ar
    12    16    17    1
    13    16    18   ar
    14     4     5    1
    15     5     6   ar
    16     6     7   ar
    17     7     8   ar
    18     8     9   ar
    19     9    10   ar
    20    10     1    1
    21    18    11   ar
    22    10     5   ar
    23    20    21    1
