@<TRIPOS>MOLECULE
*****
 28 31 0 0 0
SMALL
GASTEIGER

@<TRIPOS>ATOM
      1 O         139.3298  137.4486  162.6799 O.3     1  UNL1       -0.3826
      2 C         140.1003  138.3988  163.5479 C.3     1  UNL1        0.1103
      3 C         141.1462  139.3856  163.9751 C.3     1  UNL1        0.0526
      4 C         141.1317  139.9371  165.3700 C.3     1  UNL1        0.0950
      5 N         140.0713  139.5019  166.3376 N.pl3   1  UNL1       -0.2917
      6 C         139.0255  138.5151  165.9103 C.3     1  UNL1        0.0950
      7 C         139.0400  137.9636  164.5155 C.3     1  UNL1        0.0526
      8 H         139.7373  137.4110  161.8005 H       1  UNL1        0.2107
      9 C         140.0568  140.0534  167.7325 C.ar    1  UNL1        0.1520
     10 C         138.8386  139.8879  168.5918 C.ar    1  UNL1        0.0393
     11 C         138.8242  140.4394  169.9866 C.ar    1  UNL1        0.0436
     12 C         140.0279  141.1565  170.5221 C.ar    1  UNL1        0.1867
     13 N         140.3045  141.8020  171.8476 N.ar    1  UNL1       -0.1270
     14 N         141.6936  142.3665  171.8074 N.ar    1  UNL1       -0.1228
     15 C         142.2756  142.0699  170.4571 C.ar    1  UNL1        0.2583
     16 N         141.2461  141.3221  169.6627 N.ar    1  UNL1       -0.1866
     17 N         141.2606  140.7706  168.2679 N.ar    1  UNL1       -0.1473
     18 C         143.6463  142.4537  169.9841 C.3     1  UNL1        0.4541
     19 F         145.0172  142.8375  169.5111 F       1  UNL1       -0.1631
     20 F         143.7344  141.1763  169.2028 F       1  UNL1       -0.1631
     21 F         143.5583  143.7311  170.7655 F       1  UNL1       -0.1631
     22 C         140.8931  138.5040  162.2789 C.ar    1  UNL1        0.0020
     23 C         142.1274  137.6719  162.0944 C.ar    1  UNL1        0.0003
     24 C         142.9201  137.7771  160.8253 C.ar    1  UNL1        0.0294
     25 C         142.4786  138.7145  159.7408 C.ar    1  UNL1        0.1401
     26 F         143.2714  138.8197  158.4717 F       1  UNL1       -0.2042
     27 C         141.2442  139.5466  159.9252 C.ar    1  UNL1        0.0294
     28 C         140.4515  139.4414  161.1942 C.ar    1  UNL1        0.0003
@<TRIPOS>BOND
     1     1     2    1
     2     2    22    1
     3    22    23   ar
     4    23    24   ar
     5    24    25   ar
     6    25    26    1
     7    25    27   ar
     8    27    28   ar
     9     2     3    1
    10     3     4    1
    11     4     5    1
    12     5     9    1
    13     9    10   ar
    14    10    11   ar
    15    11    12   ar
    16    12    13   ar
    17    13    14   ar
    18    14    15   ar
    19    15    18    1
    20    18    19    1
    21    18    20    1
    22    18    21    1
    23    15    16   ar
    24    16    17   ar
    25     5     6    1
    26     6     7    1
    27     7     2    1
    28    28    22   ar
    29    17     9   ar
    30    16    12   ar
    31     1     8    1
@<TRIPOS>MOLECULE
*****
 28 31 0 0 0
SMALL
GASTEIGER

@<TRIPOS>ATOM
      1 O         142.8698  139.4289  168.7452 O.3     1  UNL1       -0.3826
      2 C         142.2540  139.8281  167.4370 C.3     1  UNL1        0.1103
      3 C         141.3721  140.5371  166.4522 C.3     1  UNL1        0.0526
      4 C         141.4702  140.2154  164.9904 C.3     1  UNL1        0.0950
      5 N         142.4500  139.1847  164.5133 N.pl3   1  UNL1       -0.2917
      6 C         143.3318  138.4758  165.4981 C.3     1  UNL1        0.0950
      7 C         143.2338  138.7974  166.9599 C.3     1  UNL1        0.0526
      8 H         142.4621  139.9380  169.4632 H       1  UNL1        0.2107
      9 C         142.5480  138.8630  163.0515 C.ar    1  UNL1        0.1520
     10 C         143.8438  138.3726  162.4767 C.ar    1  UNL1        0.0393
     11 C         143.9417  138.0509  161.0149 C.ar    1  UNL1        0.0436
     12 C         142.7440  138.2197  160.1279 C.ar    1  UNL1        0.1867
     13 N         142.5405  137.9842  158.6605 N.ar    1  UNL1       -0.1270
     14 N         141.1190  138.3292  158.3284 N.ar    1  UNL1       -0.1228
     15 C         140.4439  138.7779  159.5905 C.ar    1  UNL1        0.2583
     16 N         141.4482  138.7102  160.7027 N.ar    1  UNL1       -0.1866
     17 N         141.3502  139.0319  162.1645 N.ar    1  UNL1       -0.1473
     18 C         139.0154  139.2171  159.7182 C.3     1  UNL1        0.4541
     19 F         137.5867  139.6563  159.8458 F       1  UNL1       -0.1631
     20 F         138.7323  138.0393  160.6028 F       1  UNL1       -0.1631
     21 F         139.2985  140.3949  158.8336 F       1  UNL1       -0.1631
     22 C         141.4880  140.7201  168.3684 C.ar    1  UNL1        0.0020
     23 C         140.2303  140.2234  169.0176 C.ar    1  UNL1        0.0003
     24 C         139.4643  141.1155  169.9490 C.ar    1  UNL1        0.0294
     25 C         139.9560  142.5042  170.2312 C.ar    1  UNL1        0.1401
     26 F         139.1899  143.3963  171.1626 F       1  UNL1       -0.2042
     27 C         141.2137  143.0009  169.5819 C.ar    1  UNL1        0.0294
     28 C         141.9797  142.1089  168.6506 C.ar    1  UNL1        0.0003
@<TRIPOS>BOND
     1     1     2    1
     2     2    22    1
     3    22    23   ar
     4    23    24   ar
     5    24    25   ar
     6    25    26    1
     7    25    27   ar
     8    27    28   ar
     9     2     3    1
    10     3     4    1
    11     4     5    1
    12     5     9    1
    13     9    10   ar
    14    10    11   ar
    15    11    12   ar
    16    12    13   ar
    17    13    14   ar
    18    14    15   ar
    19    15    18    1
    20    18    19    1
    21    18    20    1
    22    18    21    1
    23    15    16   ar
    24    16    17   ar
    25     5     6    1
    26     6     7    1
    27     7     2    1
    28    28    22   ar
    29    17     9   ar
    30    16    12   ar
    31     1     8    1
@<TRIPOS>MOLECULE
*****
 28 31 0 0 0
SMALL
GASTEIGER

@<TRIPOS>ATOM
      1 O         139.7422  139.8712  168.9131 O.3     1  UNL1       -0.3826
      2 C         140.0260  140.5175  167.5896 C.3     1  UNL1        0.1103
      3 C         140.6185  141.4488  166.5739 C.3     1  UNL1        0.0526
      4 C         140.2235  141.3349  165.1313 C.3     1  UNL1        0.0950
      5 N         139.2359  140.2897  164.7044 N.pl3   1  UNL1       -0.2917
      6 C         138.6434  139.3584  165.7200 C.3     1  UNL1        0.0950
      7 C         139.0384  139.4723  167.1627 C.3     1  UNL1        0.0526
      8 H         140.2619  140.3095  169.6050 H       1  UNL1        0.2107
      9 C         138.8409  140.1759  163.2618 C.ar    1  UNL1        0.1520
     10 C         138.1094  138.9589  162.7783 C.ar    1  UNL1        0.0393
     11 C         137.7144  138.8451  161.3358 C.ar    1  UNL1        0.0436
     12 C         138.0509  139.9482  160.3767 C.ar    1  UNL1        0.1867
     13 N         137.7927  140.1154  158.9085 N.ar    1  UNL1       -0.1270
     14 N         138.3647  141.4357  158.4847 N.ar    1  UNL1       -0.1228
     15 C         138.9763  142.0845  159.6909 C.ar    1  UNL1        0.2583
     16 N         138.7824  141.1652  160.8602 N.ar    1  UNL1       -0.1866
     17 N         139.1774  141.2790  162.3028 N.ar    1  UNL1       -0.1473
     18 C         139.6616  143.4184  159.7223 C.3     1  UNL1        0.4541
     19 F         140.3470  144.7524  159.7536 F       1  UNL1       -0.1631
     20 F         140.4907  143.0204  158.5373 F       1  UNL1       -0.1631
     21 F         138.8325  143.8165  160.9073 F       1  UNL1       -0.1631
     22 C         140.9149  141.3382  168.4761 C.ar    1  UNL1        0.0020
     23 C         140.4041  142.6148  169.0755 C.ar    1  UNL1        0.0003
     24 C         141.2931  143.4356  169.9621 C.ar    1  UNL1        0.0294
     25 C         142.6930  142.9797  170.2492 C.ar    1  UNL1        0.1401
     26 F         143.5820  143.8006  171.1359 F       1  UNL1       -0.2042
     27 C         143.2039  141.7031  169.6499 C.ar    1  UNL1        0.0294
     28 C         142.3149  140.8824  168.7633 C.ar    1  UNL1        0.0003
@<TRIPOS>BOND
     1     1     2    1
     2     2    22    1
     3    22    23   ar
     4    23    24   ar
     5    24    25   ar
     6    25    26    1
     7    25    27   ar
     8    27    28   ar
     9     2     3    1
    10     3     4    1
    11     4     5    1
    12     5     9    1
    13     9    10   ar
    14    10    11   ar
    15    11    12   ar
    16    12    13   ar
    17    13    14   ar
    18    14    15   ar
    19    15    18    1
    20    18    19    1
    21    18    20    1
    22    18    21    1
    23    15    16   ar
    24    16    17   ar
    25     5     6    1
    26     6     7    1
    27     7     2    1
    28    28    22   ar
    29    17     9   ar
    30    16    12   ar
    31     1     8    1
@<TRIPOS>MOLECULE
*****
 28 31 0 0 0
SMALL
GASTEIGER

@<TRIPOS>ATOM
      1 O         139.4575  140.0910  168.9627 O.3     1  UNL1       -0.3826
      2 C         140.0305  140.4438  167.6221 C.3     1  UNL1        0.1103
      3 C         140.9039  141.0914  166.5886 C.3     1  UNL1        0.0526
      4 C         140.7137  140.7676  165.1364 C.3     1  UNL1        0.0950
      5 N         139.6502  139.7962  164.7176 N.pl3   1  UNL1       -0.2917
      6 C         138.7769  139.1486  165.7510 C.3     1  UNL1        0.0950
      7 C         138.9671  139.4724  167.2033 C.3     1  UNL1        0.0526
      8 H         139.9307  140.5784  169.6550 H       1  UNL1        0.2107
      9 C         139.4600  139.4724  163.2653 C.ar    1  UNL1        0.1520
     10 C         138.0775  139.2933  162.7116 C.ar    1  UNL1        0.0393
     11 C         137.8874  138.9695  161.2594 C.ar    1  UNL1        0.0436
     12 C         139.0798  138.8249  160.3609 C.ar    1  UNL1        0.1867
     13 N         139.2028  138.5124  158.8989 N.ar    1  UNL1       -0.1270
     14 N         140.6614  138.4984  158.5491 N.ar    1  UNL1       -0.1228
     15 C         141.4397  138.8023  159.7949 C.ar    1  UNL1        0.2583
     16 N         140.4622  139.0041  160.9146 N.ar    1  UNL1       -0.1866
     17 N         140.6524  139.3278  162.3668 N.ar    1  UNL1       -0.1473
     18 C         142.9334  138.8891  159.9021 C.3     1  UNL1        0.4541
     19 F         144.4271  138.9760  160.0093 F       1  UNL1       -0.1631
     20 F         142.8548  140.3826  159.7867 F       1  UNL1       -0.1631
     21 F         143.0119  137.3956  160.0175 F       1  UNL1       -0.1631
     22 C         140.8950  141.2926  168.5065 C.ar    1  UNL1        0.0020
     23 C         142.2914  140.8540  168.8347 C.ar    1  UNL1        0.0003
     24 C         143.1558  141.7029  169.7191 C.ar    1  UNL1        0.0294
     25 C         142.6239  142.9904  170.2752 C.ar    1  UNL1        0.1401
     26 F         143.4885  143.8393  171.1596 F       1  UNL1       -0.2042
     27 C         141.2275  143.4290  169.9470 C.ar    1  UNL1        0.0294
     28 C         140.3631  142.5802  169.0626 C.ar    1  UNL1        0.0003
@<TRIPOS>BOND
     1     1     2    1
     2     2    22    1
     3    22    23   ar
     4    23    24   ar
     5    24    25   ar
     6    25    26    1
     7    25    27   ar
     8    27    28   ar
     9     2     3    1
    10     3     4    1
    11     4     5    1
    12     5     9    1
    13     9    10   ar
    14    10    11   ar
    15    11    12   ar
    16    12    13   ar
    17    13    14   ar
    18    14    15   ar
    19    15    18    1
    20    18    19    1
    21    18    20    1
    22    18    21    1
    23    15    16   ar
    24    16    17   ar
    25     5     6    1
    26     6     7    1
    27     7     2    1
    28    28    22   ar
    29    17     9   ar
    30    16    12   ar
    31     1     8    1
@<TRIPOS>MOLECULE
*****
 28 31 0 0 0
SMALL
GASTEIGER

@<TRIPOS>ATOM
      1 O         142.6906  139.2735  168.6868 O.3     1  UNL1       -0.3826
      2 C         142.3170  139.9317  167.3917 C.3     1  UNL1        0.1103
      3 C         141.6719  140.8846  166.4295 C.3     1  UNL1        0.0526
      4 C         141.9381  140.7601  164.9586 C.3     1  UNL1        0.0950
      5 N         142.8493  139.6827  164.4498 N.pl3   1  UNL1       -0.2917
      6 C         143.4944  138.7298  165.4120 C.3     1  UNL1        0.0950
      7 C         143.2282  138.8542  166.8830 C.3     1  UNL1        0.0526
      8 H         142.2472  139.7279  169.4201 H       1  UNL1        0.2107
      9 C         143.1155  139.5582  162.9788 C.ar    1  UNL1        0.1520
     10 C         143.6000  138.2568  162.4118 C.ar    1  UNL1        0.0393
     11 C         143.8661  138.1324  160.9409 C.ar    1  UNL1        0.0436
     12 C         143.6478  139.3094  160.0370 C.ar    1  UNL1        0.1867
     13 N         143.8238  139.4851  158.5577 N.ar    1  UNL1       -0.1270
     14 N         143.4481  140.8952  158.2106 N.ar    1  UNL1       -0.1228
     15 C         143.0399  141.5909  159.4753 C.ar    1  UNL1        0.2583
     16 N         143.1634  140.6108  160.6040 N.ar    1  UNL1       -0.1866
     17 N         142.8972  140.7352  162.0750 N.ar    1  UNL1       -0.1473
     18 C         142.5877  143.0164  159.5909 C.3     1  UNL1        0.4541
     19 F         142.1355  144.4420  159.7065 F       1  UNL1       -0.1631
     20 F         143.8026  143.3353  160.4108 F       1  UNL1       -0.1631
     21 F         141.3728  142.6975  158.7710 F       1  UNL1       -0.1631
     22 C         141.5355  140.7805  168.3502 C.ar    1  UNL1        0.0020
     23 C         140.2559  140.2639  168.9382 C.ar    1  UNL1        0.0003
     24 C         139.4745  141.1128  169.8967 C.ar    1  UNL1        0.0294
     25 C         139.9726  142.4783  170.2672 C.ar    1  UNL1        0.1401
     26 F         139.1910  143.3272  171.2257 F       1  UNL1       -0.2042
     27 C         141.2522  142.9949  169.6792 C.ar    1  UNL1        0.0294
     28 C         142.0336  142.1461  168.7207 C.ar    1  UNL1        0.0003
@<TRIPOS>BOND
     1     1     2    1
     2     2    22    1
     3    22    23   ar
     4    23    24   ar
     5    24    25   ar
     6    25    26    1
     7    25    27   ar
     8    27    28   ar
     9     2     3    1
    10     3     4    1
    11     4     5    1
    12     5     9    1
    13     9    10   ar
    14    10    11   ar
    15    11    12   ar
    16    12    13   ar
    17    13    14   ar
    18    14    15   ar
    19    15    18    1
    20    18    19    1
    21    18    20    1
    22    18    21    1
    23    15    16   ar
    24    16    17   ar
    25     5     6    1
    26     6     7    1
    27     7     2    1
    28    28    22   ar
    29    17     9   ar
    30    16    12   ar
    31     1     8    1
@<TRIPOS>MOLECULE
*****
 28 31 0 0 0
SMALL
GASTEIGER

@<TRIPOS>ATOM
      1 O         141.0211  145.6834  161.7519 O.3     1  UNL1       -0.3826
      2 C         141.0996  144.2140  162.0429 C.3     1  UNL1        0.1103
      3 C         141.0399  142.7300  161.8319 C.3     1  UNL1        0.0526
      4 C         141.3510  141.7982  162.9654 C.3     1  UNL1        0.0950
      5 N         141.7219  142.3502  164.3099 N.pl3   1  UNL1       -0.2917
      6 C         141.7817  143.8341  164.5210 C.3     1  UNL1        0.0950
      7 C         141.4705  144.7660  163.3874 C.3     1  UNL1        0.0526
      8 H         140.7662  145.8164  160.8255 H       1  UNL1        0.2107
      9 C         142.0330  141.4183  165.4435 C.ar    1  UNL1        0.1520
     10 C         142.0641  139.9370  165.2096 C.ar    1  UNL1        0.0393
     11 C         142.3752  139.0052  166.3431 C.ar    1  UNL1        0.0436
     12 C         142.6553  139.5546  167.7104 C.ar    1  UNL1        0.1867
     13 N         142.9895  138.8868  169.0114 N.ar    1  UNL1       -0.1270
     14 N         143.1650  139.9554  170.0492 N.ar    1  UNL1       -0.1228
     15 C         142.9393  141.2837  169.3897 C.ar    1  UNL1        0.2583
     16 N         142.6242  141.0359  167.9443 N.ar    1  UNL1       -0.1866
     17 N         142.3131  141.9678  166.8108 N.ar    1  UNL1       -0.1473
     18 C         143.0152  142.6243  170.0583 C.3     1  UNL1        0.4541
     19 F         143.0911  143.9649  170.7269 F       1  UNL1       -0.1631
     20 F         141.5173  142.6832  170.1103 F       1  UNL1       -0.1631
     21 F         144.5131  142.5653  170.0063 F       1  UNL1       -0.1631
     22 C         140.7015  144.1723  160.5974 C.ar    1  UNL1        0.0020
     23 C         139.5864  143.2732  160.1522 C.ar    1  UNL1        0.0003
     24 C         139.1883  143.2315  158.7066 C.ar    1  UNL1        0.0294
     25 C         139.9052  144.0889  157.7062 C.ar    1  UNL1        0.1401
     26 F         139.5070  144.0471  156.2605 F       1  UNL1       -0.2042
     27 C         141.0203  144.9880  158.1514 C.ar    1  UNL1        0.0294
     28 C         141.4184  145.0297  159.5969 C.ar    1  UNL1        0.0003
@<TRIPOS>BOND
     1     1     2    1
     2     2    22    1
     3    22    23   ar
     4    23    24   ar
     5    24    25   ar
     6    25    26    1
     7    25    27   ar
     8    27    28   ar
     9     2     3    1
    10     3     4    1
    11     4     5    1
    12     5     9    1
    13     9    10   ar
    14    10    11   ar
    15    11    12   ar
    16    12    13   ar
    17    13    14   ar
    18    14    15   ar
    19    15    18    1
    20    18    19    1
    21    18    20    1
    22    18    21    1
    23    15    16   ar
    24    16    17   ar
    25     5     6    1
    26     6     7    1
    27     7     2    1
    28    28    22   ar
    29    17     9   ar
    30    16    12   ar
    31     1     8    1
@<TRIPOS>MOLECULE
*****
 28 31 0 0 0
SMALL
GASTEIGER

@<TRIPOS>ATOM
      1 O         142.0735  145.2554  161.3593 O.3     1  UNL1       -0.3826
      2 C         142.0153  143.8783  161.9512 C.3     1  UNL1        0.1103
      3 C         142.1672  142.3915  162.0792 C.3     1  UNL1        0.0526
      4 C         141.7346  141.6990  163.3375 C.3     1  UNL1        0.0950
      5 N         141.1502  142.4933  164.4678 N.pl3   1  UNL1       -0.2917
      6 C         140.9983  143.9800  164.3398 C.3     1  UNL1        0.0950
      7 C         141.4309  144.6726  163.0815 C.3     1  UNL1        0.0526
      8 H         142.4540  145.2085  160.4683 H       1  UNL1        0.2107
      9 C         140.7176  141.8007  165.7261 C.ar    1  UNL1        0.1520
     10 C         139.7174  140.6847  165.6621 C.ar    1  UNL1        0.0393
     11 C         139.2849  139.9922  166.9204 C.ar    1  UNL1        0.0436
     12 C         139.8526  140.4157  168.2427 C.ar    1  UNL1        0.1867
     13 N         139.6176  139.9230  169.6399 N.ar    1  UNL1       -0.1270
     14 N         140.4727  140.7345  170.5674 N.ar    1  UNL1       -0.1228
     15 C         141.2361  141.7287  169.7434 C.ar    1  UNL1        0.2583
     16 N         140.8528  141.5316  168.3067 N.ar    1  UNL1       -0.1866
     17 N         141.2853  142.2241  167.0484 N.ar    1  UNL1       -0.1473
     18 C         142.2115  142.7420  170.2646 C.3     1  UNL1        0.4541
     19 F         143.1870  143.7554  170.7859 F       1  UNL1       -0.1631
     20 F         143.2398  141.6636  170.4369 F       1  UNL1       -0.1631
     21 F         141.1832  143.8204  170.0924 F       1  UNL1       -0.1631
     22 C         142.6199  143.5623  160.6154 C.ar    1  UNL1        0.0020
     23 C         141.9560  144.0427  159.3590 C.ar    1  UNL1        0.0003
     24 C         142.5606  143.7266  158.0231 C.ar    1  UNL1        0.0294
     25 C         143.8292  142.9302  157.9436 C.ar    1  UNL1        0.1401
     26 F         144.4338  142.6141  156.6076 F       1  UNL1       -0.2042
     27 C         144.4931  142.4497  159.1999 C.ar    1  UNL1        0.0294
     28 C         143.8885  142.7657  160.5358 C.ar    1  UNL1        0.0003
@<TRIPOS>BOND
     1     1     2    1
     2     2    22    1
     3    22    23   ar
     4    23    24   ar
     5    24    25   ar
     6    25    26    1
     7    25    27   ar
     8    27    28   ar
     9     2     3    1
    10     3     4    1
    11     4     5    1
    12     5     9    1
    13     9    10   ar
    14    10    11   ar
    15    11    12   ar
    16    12    13   ar
    17    13    14   ar
    18    14    15   ar
    19    15    18    1
    20    18    19    1
    21    18    20    1
    22    18    21    1
    23    15    16   ar
    24    16    17   ar
    25     5     6    1
    26     6     7    1
    27     7     2    1
    28    28    22   ar
    29    17     9   ar
    30    16    12   ar
    31     1     8    1
@<TRIPOS>MOLECULE
*****
 28 31 0 0 0
SMALL
GASTEIGER

@<TRIPOS>ATOM
      1 O         142.5437  138.6018  165.0080 O.3     1  UNL1       -0.3826
      2 C         141.8107  138.4806  163.7049 C.3     1  UNL1        0.1103
      3 C         140.6743  138.3805  162.7309 C.3     1  UNL1        0.0526
      4 C         140.9539  138.2618  161.2620 C.3     1  UNL1        0.0950
      5 N         142.3698  138.2430  160.7671 N.pl3   1  UNL1       -0.2917
      6 C         143.5061  138.3431  161.7411 C.3     1  UNL1        0.0950
      7 C         143.2266  138.4619  163.2101 C.3     1  UNL1        0.0526
      8 H         141.9040  138.6525  165.7354 H       1  UNL1        0.2107
      9 C         142.6493  138.1243  159.2981 C.ar    1  UNL1        0.1520
     10 C         142.8932  139.3569  158.4790 C.ar    1  UNL1        0.0393
     11 C         143.1727  139.2381  157.0101 C.ar    1  UNL1        0.0436
     12 C         143.2083  137.8866  156.3603 C.ar    1  UNL1        0.1867
     13 N         143.4567  137.4602  154.9437 N.ar    1  UNL1       -0.1270
     14 N         143.3664  135.9640  154.8874 N.ar    1  UNL1       -0.1228
     15 C         143.0621  135.4657  156.2692 C.ar    1  UNL1        0.2583
     16 N         142.9644  136.6539  157.1794 N.ar    1  UNL1       -0.1866
     17 N         142.6849  136.7728  158.6483 N.ar    1  UNL1       -0.1473
     18 C         142.8864  134.0311  156.6703 C.3     1  UNL1        0.4541
     19 F         142.7106  132.5963  157.0713 F       1  UNL1       -0.1631
     20 F         141.6228  133.9607  155.8650 F       1  UNL1       -0.1631
     21 F         144.1499  134.1014  157.4755 F       1  UNL1       -0.1631
     22 C         140.6494  138.5414  164.6524 C.ar    1  UNL1        0.0020
     23 C         139.6254  137.4453  164.6550 C.ar    1  UNL1        0.0003
     24 C         138.4641  137.5061  165.6025 C.ar    1  UNL1        0.0294
     25 C         138.3268  138.6630  166.5473 C.ar    1  UNL1        0.1401
     26 F         137.1654  138.7238  167.4947 F       1  UNL1       -0.2042
     27 C         139.3507  139.7591  166.5446 C.ar    1  UNL1        0.0294
     28 C         140.5120  139.6983  165.5972 C.ar    1  UNL1        0.0003
@<TRIPOS>BOND
     1     1     2    1
     2     2    22    1
     3    22    23   ar
     4    23    24   ar
     5    24    25   ar
     6    25    26    1
     7    25    27   ar
     8    27    28   ar
     9     2     3    1
    10     3     4    1
    11     4     5    1
    12     5     9    1
    13     9    10   ar
    14    10    11   ar
    15    11    12   ar
    16    12    13   ar
    17    13    14   ar
    18    14    15   ar
    19    15    18    1
    20    18    19    1
    21    18    20    1
    22    18    21    1
    23    15    16   ar
    24    16    17   ar
    25     5     6    1
    26     6     7    1
    27     7     2    1
    28    28    22   ar
    29    17     9   ar
    30    16    12   ar
    31     1     8    1
@<TRIPOS>MOLECULE
*****
 28 31 0 0 0
SMALL
GASTEIGER

@<TRIPOS>ATOM
      1 O         142.1898  145.0286  161.0407 O.3     1  UNL1       -0.3826
      2 C         141.1995  144.0169  161.5365 C.3     1  UNL1        0.1103
      3 C         140.0508  143.0523  161.5383 C.3     1  UNL1        0.0526
      4 C         139.7022  142.3035  162.7904 C.3     1  UNL1        0.0950
      5 N         140.5023  142.5193  164.0407 N.pl3   1  UNL1       -0.2917
      6 C         141.6510  143.4838  164.0389 C.3     1  UNL1        0.0950
      7 C         141.9997  144.2327  162.7868 C.3     1  UNL1        0.0526
      8 H         142.0144  145.2219  160.1065 H       1  UNL1        0.2107
      9 C         140.1537  141.7704  165.2928 C.ar    1  UNL1        0.1520
     10 C         139.3743  140.4916  165.2094 C.ar    1  UNL1        0.0393
     11 C         139.0257  139.7428  166.4615 C.ar    1  UNL1        0.0436
     12 C         139.4566  140.2728  167.7970 C.ar    1  UNL1        0.1867
     13 N         139.2608  139.7574  169.1920 N.ar    1  UNL1       -0.1270
     14 N         139.9194  140.7177  170.1376 N.ar    1  UNL1       -0.1228
     15 C         140.5221  141.8266  169.3269 C.ar    1  UNL1        0.2583
     16 N         140.2360  141.5516  167.8803 N.ar    1  UNL1       -0.1866
     17 N         140.5846  142.3004  166.6282 N.ar    1  UNL1       -0.1473
     18 C         141.2781  143.0038  169.8678 C.3     1  UNL1        0.4541
     19 F         142.0342  144.1811  170.4087 F       1  UNL1       -0.1631
     20 F         142.3814  142.0905  170.3134 F       1  UNL1       -0.1631
     21 F         140.1748  143.9171  169.4221 F       1  UNL1       -0.1631
     22 C         140.7433  144.1525  160.1140 C.ar    1  UNL1        0.0020
     23 C         140.6742  145.5075  159.4745 C.ar    1  UNL1        0.0003
     24 C         140.2179  145.6431  158.0519 C.ar    1  UNL1        0.0294
     25 C         139.8309  144.4236  157.2690 C.ar    1  UNL1        0.1401
     26 F         139.3747  144.5592  155.8465 F       1  UNL1       -0.2042
     27 C         139.9001  143.0685  157.9086 C.ar    1  UNL1        0.0294
     28 C         140.3563  142.9330  159.3310 C.ar    1  UNL1        0.0003
@<TRIPOS>BOND
     1     1     2    1
     2     2    22    1
     3    22    23   ar
     4    23    24   ar
     5    24    25   ar
     6    25    26    1
     7    25    27   ar
     8    27    28   ar
     9     2     3    1
    10     3     4    1
    11     4     5    1
    12     5     9    1
    13     9    10   ar
    14    10    11   ar
    15    11    12   ar
    16    12    13   ar
    17    13    14   ar
    18    14    15   ar
    19    15    18    1
    20    18    19    1
    21    18    20    1
    22    18    21    1
    23    15    16   ar
    24    16    17   ar
    25     5     6    1
    26     6     7    1
    27     7     2    1
    28    28    22   ar
    29    17     9   ar
    30    16    12   ar
    31     1     8    1
