@<TRIPOS>MOLECULE
*****
 35 39 0 0 0
SMALL
GASTEIGER

@<TRIPOS>ATOM
      1 C         141.5655  143.3613  160.9340 C.3     1  UNL1        0.0801
      2 C         140.7222  142.1525  161.2124 C.3     1  UNL1        0.0248
      3 C         140.8377  141.4447  162.5299 C.3     1  UNL1        0.0277
      4 C         141.7966  141.9458  163.5689 C.ar    1  UNL1       -0.0263
      5 C         141.9121  141.2379  164.8864 C.ar    1  UNL1       -0.0075
      6 C         142.8710  141.7390  165.9254 C.ar    1  UNL1       -0.0065
      7 C         143.7143  142.9478  165.6469 C.ar    1  UNL1       -0.0033
      8 C         143.5988  143.6556  164.3294 C.ar    1  UNL1       -0.0048
      9 C         142.6399  143.1546  163.2904 C.ar    1  UNL1       -0.0245
     10 C         142.5243  143.8623  161.9730 C.3     1  UNL1        0.0458
     11 O         139.5654  145.5705  160.5885 O.2     1  UNL1       -0.2734
     12 C         140.4499  145.1737  159.4438 C.2     1  UNL1        0.2420
     13 C         140.3343  145.8815  158.1264 C.3     1  UNL1        0.1587
     14 N         141.2188  145.4848  156.9816 N.3     1  UNL1       -0.2632
     15 C         142.2188  144.3802  157.1544 C.3     1  UNL1        0.0942
     16 C         142.3344  143.6724  158.4719 C.3     1  UNL1        0.1107
     17 N         141.4499  144.0691  159.6165 N.am    1  UNL1       -0.2783
     18 C         141.1032  146.1926  155.6642 C.3     1  UNL1        0.0773
     19 C         139.7599  146.6387  155.1679 C.3     1  UNL1        0.0437
     20 C         139.4081  148.0969  155.1639 C.ar    1  UNL1       -0.0206
     21 C         139.8088  148.9619  154.0059 C.ar    1  UNL1       -0.0019
     22 C         139.4570  150.4200  154.0019 C.ar    1  UNL1        0.0293
     23 C         138.7045  151.0131  155.1561 C.ar    1  UNL1        0.1401
     24 F         138.3527  152.4714  155.1521 F       1  UNL1       -0.2042
     25 C         138.3038  150.1481  156.3141 C.ar    1  UNL1        0.0293
     26 C         138.6556  148.6900  156.3180 C.ar    1  UNL1       -0.0019
     27 C         142.9866  141.0312  167.2428 C.3     1  UNL1        0.0992
     28 N         142.1670  141.4871  168.4136 N.3     1  UNL1       -0.2659
     29 C         141.0830  142.5055  168.2191 C.3     1  UNL1        0.0980
     30 C         140.2635  142.9614  169.3898 C.3     1  UNL1        0.1681
     31 S         140.5280  142.3989  170.7549 S.O2    1  UNL1       -0.0072
     32 O         140.4007  142.1614  172.2305 O.2     1  UNL1       -0.1729
     33 O         139.3998  143.3347  171.0730 O.2     1  UNL1       -0.1729
     34 C         141.6120  141.3805  170.9493 C.3     1  UNL1        0.1681
     35 C         142.4315  140.9246  169.7787 C.3     1  UNL1        0.0980
@<TRIPOS>BOND
     1    11    12    2
     2    12    13    1
     3    13    14    1
     4    14    18    1
     5    18    19    1
     6    19    20    1
     7    20    21   ar
     8    21    22   ar
     9    22    23   ar
    10    23    24    1
    11    23    25   ar
    12    25    26   ar
    13    14    15    1
    14    15    16    1
    15    16    17    1
    16     1    17    1
    17     1     2    1
    18     2     3    1
    19     3     4    1
    20     4     5   ar
    21     5     6   ar
    22     6    27    1
    23    27    28    1
    24    28    29    1
    25    29    30    1
    26    30    31    1
    27    31    32    2
    28    31    33    2
    29    31    34    1
    30    34    35    1
    31     6     7   ar
    32     7     8   ar
    33     8     9   ar
    34     9    10    1
    35    17    12   am
    36    10     1    1
    37    26    20   ar
    38     9     4   ar
    39    35    28    1
@<TRIPOS>MOLECULE
*****
 35 39 0 0 0
SMALL
GASTEIGER

@<TRIPOS>ATOM
      1 C         142.0021  143.7225  161.2829 C.3     1  UNL1        0.0801
      2 C         142.7229  144.5692  162.2896 C.3     1  UNL1        0.0248
      3 C         142.9947  144.0326  163.6637 C.3     1  UNL1        0.0277
      4 C         142.5457  142.6493  164.0310 C.ar    1  UNL1       -0.0263
      5 C         142.8176  142.1126  165.4052 C.ar    1  UNL1       -0.0075
      6 C         142.3686  140.7293  165.7725 C.ar    1  UNL1       -0.0065
      7 C         141.6478  139.8826  164.7656 C.ar    1  UNL1       -0.0033
      8 C         141.3760  140.4193  163.3916 C.ar    1  UNL1       -0.0048
      9 C         141.8250  141.8026  163.0243 C.ar    1  UNL1       -0.0245
     10 C         141.5532  142.3392  161.6502 C.3     1  UNL1        0.0458
     11 O         139.6757  145.5600  160.8233 O.2     1  UNL1       -0.2734
     12 C         140.5670  145.1779  159.6789 C.2     1  UNL1        0.2420
     13 C         140.2952  145.7145  158.3049 C.3     1  UNL1        0.1587
     14 N         141.1866  145.3324  157.1605 N.3     1  UNL1       -0.2632
     15 C         142.3498  144.4136  157.3903 C.3     1  UNL1        0.0942
     16 C         142.6216  143.8770  158.7645 C.3     1  UNL1        0.1107
     17 N         141.7303  144.2591  159.9087 N.am    1  UNL1       -0.2783
     18 C         140.9147  145.8690  155.7865 C.3     1  UNL1        0.0773
     19 C         139.5509  146.3890  155.4407 C.3     1  UNL1        0.0437
     20 C         139.3063  147.8675  155.3754 C.ar    1  UNL1       -0.0206
     21 C         139.7315  148.6453  154.1653 C.ar    1  UNL1       -0.0019
     22 C         139.4869  150.1237  154.1000 C.ar    1  UNL1        0.0293
     23 C         138.8171  150.8244  155.2448 C.ar    1  UNL1        0.1401
     24 F         138.5725  152.3030  155.1794 F       1  UNL1       -0.2042
     25 C         138.3919  150.0467  156.4548 C.ar    1  UNL1        0.0293
     26 C         138.6365  148.5682  156.5201 C.ar    1  UNL1       -0.0019
     27 C         142.6404  140.1927  167.1465 C.3     1  UNL1        0.0992
     28 N         141.9449  140.7874  168.3351 N.3     1  UNL1       -0.2659
     29 C         142.5487  140.6540  169.7017 C.3     1  UNL1        0.0980
     30 C         141.8533  141.2486  170.8903 C.3     1  UNL1        0.1681
     31 S         140.5539  141.9766  170.7122 S.O2    1  UNL1       -0.0072
     32 O         139.3148  142.7517  171.0495 O.2     1  UNL1       -0.1729
     33 O         140.7274  142.1125  172.1959 O.2     1  UNL1       -0.1729
     34 C         139.9500  142.1099  169.3456 C.3     1  UNL1        0.1681
     35 C         140.6455  141.5153  168.1571 C.3     1  UNL1        0.0980
@<TRIPOS>BOND
     1    11    12    2
     2    12    13    1
     3    13    14    1
     4    14    18    1
     5    18    19    1
     6    19    20    1
     7    20    21   ar
     8    21    22   ar
     9    22    23   ar
    10    23    24    1
    11    23    25   ar
    12    25    26   ar
    13    14    15    1
    14    15    16    1
    15    16    17    1
    16     1    17    1
    17     1     2    1
    18     2     3    1
    19     3     4    1
    20     4     5   ar
    21     5     6   ar
    22     6    27    1
    23    27    28    1
    24    28    29    1
    25    29    30    1
    26    30    31    1
    27    31    32    2
    28    31    33    2
    29    31    34    1
    30    34    35    1
    31     6     7   ar
    32     7     8   ar
    33     8     9   ar
    34     9    10    1
    35    17    12   am
    36    10     1    1
    37    26    20   ar
    38     9     4   ar
    39    35    28    1
@<TRIPOS>MOLECULE
*****
 35 39 0 0 0
SMALL
GASTEIGER

@<TRIPOS>ATOM
      1 C         140.0340  142.8578  160.3122 C.3     1  UNL1        0.0801
      2 C         141.3659  142.2577  160.6526 C.3     1  UNL1        0.0248
      3 C         141.5612  141.5624  161.9673 C.3     1  UNL1        0.0277
      4 C         140.4246  141.4672  162.9415 C.ar    1  UNL1       -0.0263
      5 C         140.6200  140.7719  164.2562 C.ar    1  UNL1       -0.0075
      6 C         139.4834  140.6767  165.2305 C.ar    1  UNL1       -0.0065
      7 C         138.1514  141.2768  164.8900 C.ar    1  UNL1       -0.0033
      8 C         137.9561  141.9721  163.5753 C.ar    1  UNL1       -0.0048
      9 C         139.0927  142.0673  162.6011 C.ar    1  UNL1       -0.0245
     10 C         138.8974  142.7626  161.2864 C.3     1  UNL1        0.0458
     11 O         141.3609  145.4993  159.8006 O.2     1  UNL1       -0.2734
     12 C         140.5021  144.8739  158.7417 C.2     1  UNL1        0.2420
     13 C         140.3067  145.5692  157.4270 C.3     1  UNL1        0.1587
     14 N         139.4479  144.9437  156.3681 N.3     1  UNL1       -0.2632
     15 C         138.7845  143.6230  156.6238 C.3     1  UNL1        0.0942
     16 C         138.9799  142.9276  157.9385 C.3     1  UNL1        0.1107
     17 N         139.8386  143.5531  158.9974 N.am    1  UNL1       -0.2783
     18 C         139.2526  145.6390  155.0534 C.3     1  UNL1        0.0773
     19 C         140.1607  146.7658  154.6587 C.3     1  UNL1        0.0437
     20 C         139.6785  148.1835  154.7460 C.ar    1  UNL1       -0.0206
     21 C         138.8171  148.6132  155.8964 C.ar    1  UNL1       -0.0019
     22 C         138.3349  150.0309  155.9836 C.ar    1  UNL1        0.0293
     23 C         138.7141  151.0188  154.9205 C.ar    1  UNL1        0.1401
     24 F         138.2318  152.4366  155.0078 F       1  UNL1       -0.2042
     25 C         139.5754  150.5891  153.7702 C.ar    1  UNL1        0.0293
     26 C         140.0576  149.1714  153.6829 C.ar    1  UNL1       -0.0019
     27 C         139.6787  139.9815  166.5451 C.3     1  UNL1        0.0992
     28 N         139.9806  140.7802  167.7785 N.3     1  UNL1       -0.2659
     29 C         139.7180  140.1945  169.1342 C.3     1  UNL1        0.0980
     30 C         140.0199  140.9932  170.3675 C.3     1  UNL1        0.1681
     31 S         140.5843  142.3775  170.2450 S.O2    1  UNL1       -0.0072
     32 O         141.1225  143.7204  170.6411 O.2     1  UNL1       -0.1729
     33 O         140.5087  142.2583  171.7383 O.2     1  UNL1       -0.1729
     34 C         140.8469  142.9631  168.8892 C.3     1  UNL1        0.1681
     35 C         140.5450  142.1645  167.6560 C.3     1  UNL1        0.0980
@<TRIPOS>BOND
     1    11    12    2
     2    12    13    1
     3    13    14    1
     4    14    18    1
     5    18    19    1
     6    19    20    1
     7    20    21   ar
     8    21    22   ar
     9    22    23   ar
    10    23    24    1
    11    23    25   ar
    12    25    26   ar
    13    14    15    1
    14    15    16    1
    15    16    17    1
    16     1    17    1
    17     1     2    1
    18     2     3    1
    19     3     4    1
    20     4     5   ar
    21     5     6   ar
    22     6    27    1
    23    27    28    1
    24    28    29    1
    25    29    30    1
    26    30    31    1
    27    31    32    2
    28    31    33    2
    29    31    34    1
    30    34    35    1
    31     6     7   ar
    32     7     8   ar
    33     8     9   ar
    34     9    10    1
    35    17    12   am
    36    10     1    1
    37    26    20   ar
    38     9     4   ar
    39    35    28    1
@<TRIPOS>MOLECULE
*****
 35 39 0 0 0
SMALL
GASTEIGER

@<TRIPOS>ATOM
      1 C         140.9099  138.5617  161.0729 C.3     1  UNL1        0.0801
      2 C         141.7120  137.6823  161.9858 C.3     1  UNL1        0.0248
      3 C         141.4584  137.7064  163.4640 C.3     1  UNL1        0.0277
      4 C         140.4027  138.6097  164.0293 C.ar    1  UNL1       -0.0263
      5 C         140.1491  138.6337  165.5076 C.ar    1  UNL1       -0.0075
      6 C         139.0935  139.5370  166.0728 C.ar    1  UNL1       -0.0065
      7 C         138.2914  140.4164  165.1599 C.ar    1  UNL1       -0.0033
      8 C         138.5450  140.3924  163.6817 C.ar    1  UNL1       -0.0048
      9 C         139.6007  139.4890  163.1164 C.ar    1  UNL1       -0.0245
     10 C         139.8543  139.4650  161.6382 C.3     1  UNL1        0.0458
     11 O         143.6669  139.0910  160.0153 O.2     1  UNL1       -0.2734
     12 C         142.5420  138.8024  159.0658 C.2     1  UNL1        0.2420
     13 C         142.7957  138.7784  157.5877 C.3     1  UNL1        0.1587
     14 N         141.6707  138.4898  156.6382 N.3     1  UNL1       -0.2632
     15 C         140.2922  138.2251  157.1671 C.3     1  UNL1        0.0942
     16 C         140.0387  138.2491  158.6453 C.3     1  UNL1        0.1107
     17 N         141.1635  138.5377  159.5947 N.am    1  UNL1       -0.2783
     18 C         141.9244  138.4658  155.1601 C.3     1  UNL1        0.0773
     19 C         142.7487  137.3666  154.5583 C.3     1  UNL1        0.0437
     20 C         142.7012  135.9866  155.1444 C.ar    1  UNL1       -0.0206
     21 C         141.5374  135.0869  154.8511 C.ar    1  UNL1       -0.0019
     22 C         141.4899  133.7070  155.4371 C.ar    1  UNL1        0.0293
     23 C         142.6061  133.2268  156.3165 C.ar    1  UNL1        0.1401
     24 F         142.5586  131.8468  156.9026 F       1  UNL1       -0.2042
     25 C         143.7699  134.1265  156.6099 C.ar    1  UNL1        0.0293
     26 C         143.8174  135.5064  156.0238 C.ar    1  UNL1       -0.0019
     27 C         138.8398  139.5610  167.5510 C.3     1  UNL1        0.0992
     28 N         139.6864  140.4196  168.4434 N.3     1  UNL1       -0.2659
     29 C         139.6982  140.1793  169.9240 C.3     1  UNL1        0.0980
     30 C         140.5447  141.0378  170.8164 C.3     1  UNL1        0.1681
     31 S         141.3793  142.1366  170.2282 S.O2    1  UNL1       -0.0072
     32 O         142.3332  143.2912  170.1440 O.2     1  UNL1       -0.1729
     33 O         141.7225  142.2974  171.6795 O.2     1  UNL1       -0.1729
     34 C         141.3675  142.3769  168.7476 C.3     1  UNL1        0.1681
     35 C         140.5210  141.5184  167.8552 C.3     1  UNL1        0.0980
@<TRIPOS>BOND
     1    11    12    2
     2    12    13    1
     3    13    14    1
     4    14    18    1
     5    18    19    1
     6    19    20    1
     7    20    21   ar
     8    21    22   ar
     9    22    23   ar
    10    23    24    1
    11    23    25   ar
    12    25    26   ar
    13    14    15    1
    14    15    16    1
    15    16    17    1
    16     1    17    1
    17     1     2    1
    18     2     3    1
    19     3     4    1
    20     4     5   ar
    21     5     6   ar
    22     6    27    1
    23    27    28    1
    24    28    29    1
    25    29    30    1
    26    30    31    1
    27    31    32    2
    28    31    33    2
    29    31    34    1
    30    34    35    1
    31     6     7   ar
    32     7     8   ar
    33     8     9   ar
    34     9    10    1
    35    17    12   am
    36    10     1    1
    37    26    20   ar
    38     9     4   ar
    39    35    28    1
@<TRIPOS>MOLECULE
*****
 35 39 0 0 0
SMALL
GASTEIGER

@<TRIPOS>ATOM
      1 C         140.8958  139.0008  161.1217 C.3     1  UNL1        0.0801
      2 C         141.5197  140.2874  161.5749 C.3     1  UNL1        0.0248
      3 C         141.3458  140.7467  162.9922 C.3     1  UNL1        0.0277
      4 C         140.5481  139.9195  163.9563 C.ar    1  UNL1       -0.0263
      5 C         140.3743  140.3788  165.3736 C.ar    1  UNL1       -0.0075
      6 C         139.5766  139.5516  166.3376 C.ar    1  UNL1       -0.0065
      7 C         138.9528  138.2649  165.8843 C.ar    1  UNL1       -0.0033
      8 C         139.1266  137.8056  164.4670 C.ar    1  UNL1       -0.0048
      9 C         139.9243  138.6329  163.5030 C.ar    1  UNL1       -0.0245
     10 C         140.0982  138.1736  162.0857 C.3     1  UNL1        0.0458
     11 O         143.6278  138.3085  160.0937 O.2     1  UNL1       -0.2734
     12 C         142.4357  138.1953  159.1903 C.2     1  UNL1        0.2420
     13 C         142.6096  137.7359  157.7731 C.3     1  UNL1        0.1587
     14 N         141.4174  137.6227  156.8697 N.3     1  UNL1       -0.2632
     15 C         140.0514  137.9689  157.3837 C.3     1  UNL1        0.0942
     16 C         139.8775  138.4283  158.8010 C.3     1  UNL1        0.1107
     17 N         141.0697  138.5415  159.7043 N.am    1  UNL1       -0.2783
     18 C         141.5913  137.1634  155.4524 C.3     1  UNL1        0.0773
     19 C         142.7286  136.2538  155.0930 C.3     1  UNL1        0.0437
     20 C         142.7401  134.8369  155.5852 C.ar    1  UNL1       -0.0206
     21 C         141.7206  133.8592  155.0805 C.ar    1  UNL1       -0.0019
     22 C         141.7322  132.4424  155.5727 C.ar    1  UNL1        0.0293
     23 C         142.7633  132.0031  156.5696 C.ar    1  UNL1        0.1401
     24 F         142.7749  130.5862  157.0618 F       1  UNL1       -0.2042
     25 C         143.7828  132.9808  157.0744 C.ar    1  UNL1        0.0293
     26 C         143.7712  134.3976  156.5822 C.ar    1  UNL1       -0.0019
     27 C         139.4028  140.0109  167.7549 C.3     1  UNL1        0.0992
     28 N         140.4894  140.7965  168.4274 N.3     1  UNL1       -0.2659
     29 C         140.1716  142.1088  169.0807 C.3     1  UNL1        0.0980
     30 C         141.2581  142.8945  169.7531 C.3     1  UNL1        0.1681
     31 S         142.6624  142.3677  169.7723 S.O2    1  UNL1       -0.0072
     32 O         144.1339  142.2870  170.0521 O.2     1  UNL1       -0.1729
     33 O         142.8557  143.6520  170.5228 O.2     1  UNL1       -0.1729
     34 C         142.9802  141.0554  169.1190 C.3     1  UNL1        0.1681
     35 C         141.8937  140.2698  168.4466 C.3     1  UNL1        0.0980
@<TRIPOS>BOND
     1    11    12    2
     2    12    13    1
     3    13    14    1
     4    14    18    1
     5    18    19    1
     6    19    20    1
     7    20    21   ar
     8    21    22   ar
     9    22    23   ar
    10    23    24    1
    11    23    25   ar
    12    25    26   ar
    13    14    15    1
    14    15    16    1
    15    16    17    1
    16     1    17    1
    17     1     2    1
    18     2     3    1
    19     3     4    1
    20     4     5   ar
    21     5     6   ar
    22     6    27    1
    23    27    28    1
    24    28    29    1
    25    29    30    1
    26    30    31    1
    27    31    32    2
    28    31    33    2
    29    31    34    1
    30    34    35    1
    31     6     7   ar
    32     7     8   ar
    33     8     9   ar
    34     9    10    1
    35    17    12   am
    36    10     1    1
    37    26    20   ar
    38     9     4   ar
    39    35    28    1
@<TRIPOS>MOLECULE
*****
 35 39 0 0 0
SMALL
GASTEIGER

@<TRIPOS>ATOM
      1 C         142.0911  139.1134  161.5582 C.3     1  UNL1        0.0801
      2 C         142.2458  138.1471  162.6950 C.3     1  UNL1        0.0248
      3 C         142.5683  138.6522  164.0701 C.3     1  UNL1        0.0277
      4 C         142.7362  140.1236  164.3083 C.ar    1  UNL1       -0.0263
      5 C         143.0587  140.6287  165.6835 C.ar    1  UNL1       -0.0075
      6 C         143.2266  142.1001  165.9217 C.ar    1  UNL1       -0.0065
      7 C         143.0719  143.0665  164.7849 C.ar    1  UNL1       -0.0033
      8 C         142.7494  142.5613  163.4098 C.ar    1  UNL1       -0.0048
      9 C         142.5815  141.0899  163.1716 C.ar    1  UNL1       -0.0245
     10 C         142.2590  140.5848  161.7965 C.3     1  UNL1        0.0458
     11 O         139.2467  139.0679  160.6059 O.2     1  UNL1       -0.2734
     12 C         140.3464  138.5856  159.7069 C.2     1  UNL1        0.2420
     13 C         140.0238  138.0805  158.3319 C.3     1  UNL1        0.1587
     14 N         141.1235  137.5981  157.4329 N.3     1  UNL1       -0.2632
     15 C         142.5457  137.6209  157.9091 C.3     1  UNL1        0.0942
     16 C         142.8683  138.1260  159.2842 C.3     1  UNL1        0.1107
     17 N         141.7686  138.6083  160.1831 N.am    1  UNL1       -0.2783
     18 C         140.8009  137.0931  156.0579 C.3     1  UNL1        0.0773
     19 C         141.8169  136.2967  155.2940 C.3     1  UNL1        0.0437
     20 C         142.0195  134.8435  155.6057 C.ar    1  UNL1       -0.0206
     21 C         143.0061  134.4326  156.6582 C.ar    1  UNL1       -0.0019
     22 C         143.2086  132.9795  156.9699 C.ar    1  UNL1        0.0293
     23 C         142.4246  131.9371  156.2291 C.ar    1  UNL1        0.1401
     24 F         142.6272  130.4839  156.5409 F       1  UNL1       -0.2042
     25 C         141.4380  132.3479  155.1766 C.ar    1  UNL1        0.0293
     26 C         141.2355  133.8011  154.8649 C.ar    1  UNL1       -0.0019
     27 C         143.5491  142.6053  167.2968 C.3     1  UNL1        0.0992
     28 N         142.5433  142.4682  168.4012 N.3     1  UNL1       -0.2659
     29 C         141.0771  142.4672  168.0845 C.3     1  UNL1        0.0980
     30 C         140.0714  142.3302  169.1888 C.3     1  UNL1        0.1681
     31 S         140.5318  142.1942  170.6099 S.O2    1  UNL1       -0.0072
     32 O         140.4763  142.0392  172.1008 O.2     1  UNL1       -0.1729
     33 O         139.0463  142.1394  170.8110 O.2     1  UNL1       -0.1729
     34 C         141.9979  142.1952  170.9266 C.3     1  UNL1        0.1681
     35 C         143.0037  142.3322  169.8223 C.3     1  UNL1        0.0980
@<TRIPOS>BOND
     1    11    12    2
     2    12    13    1
     3    13    14    1
     4    14    18    1
     5    18    19    1
     6    19    20    1
     7    20    21   ar
     8    21    22   ar
     9    22    23   ar
    10    23    24    1
    11    23    25   ar
    12    25    26   ar
    13    14    15    1
    14    15    16    1
    15    16    17    1
    16     1    17    1
    17     1     2    1
    18     2     3    1
    19     3     4    1
    20     4     5   ar
    21     5     6   ar
    22     6    27    1
    23    27    28    1
    24    28    29    1
    25    29    30    1
    26    30    31    1
    27    31    32    2
    28    31    33    2
    29    31    34    1
    30    34    35    1
    31     6     7   ar
    32     7     8   ar
    33     8     9   ar
    34     9    10    1
    35    17    12   am
    36    10     1    1
    37    26    20   ar
    38     9     4   ar
    39    35    28    1
@<TRIPOS>MOLECULE
*****
 35 39 0 0 0
SMALL
GASTEIGER

@<TRIPOS>ATOM
      1 C         141.7954  139.8751  160.5015 C.3     1  UNL1        0.0801
      2 C         141.2588  141.2689  160.6410 C.3     1  UNL1        0.0248
      3 C         141.3819  141.9924  161.9492 C.3     1  UNL1        0.0277
      4 C         142.0415  141.3222  163.1178 C.ar    1  UNL1       -0.0263
      5 C         142.1645  142.0458  164.4260 C.ar    1  UNL1       -0.0075
      6 C         142.8241  141.3756  165.5946 C.ar    1  UNL1       -0.0065
      7 C         143.3607  139.9818  165.4551 C.ar    1  UNL1       -0.0033
      8 C         143.2377  139.2583  164.1470 C.ar    1  UNL1       -0.0048
      9 C         142.5780  139.9285  162.9783 C.ar    1  UNL1       -0.0245
     10 C         142.4550  139.2049  161.6702 C.3     1  UNL1        0.0458
     11 O         144.1842  139.6035  158.7072 O.2     1  UNL1       -0.2734
     12 C         142.8667  139.0157  158.2962 C.2     1  UNL1        0.2420
     13 C         142.7438  138.2921  156.9880 C.3     1  UNL1        0.1587
     14 N         141.4263  137.7043  156.5770 N.3     1  UNL1       -0.2632
     15 C         140.2319  137.8401  157.4742 C.3     1  UNL1        0.0942
     16 C         140.3549  138.5637  158.7824 C.3     1  UNL1        0.1107
     17 N         141.6723  139.1515  159.1933 N.am    1  UNL1       -0.2783
     18 C         141.3033  136.9807  155.2689 C.3     1  UNL1        0.0773
     19 C         140.9445  135.5244  155.2482 C.3     1  UNL1        0.0437
     20 C         142.0115  134.4863  155.4325 C.ar    1  UNL1       -0.0206
     21 C         142.1883  133.4028  154.4103 C.ar    1  UNL1       -0.0019
     22 C         143.2552  132.3648  154.5946 C.ar    1  UNL1        0.0293
     23 C         144.1455  132.4103  155.8011 C.ar    1  UNL1        0.1401
     24 F         145.2125  131.3722  155.9853 F       1  UNL1       -0.2042
     25 C         143.9687  133.4938  156.8232 C.ar    1  UNL1        0.0293
     26 C         142.9017  134.5318  156.6389 C.ar    1  UNL1       -0.0019
     27 C         142.9472  142.0992  166.9028 C.3     1  UNL1        0.0992
     28 N         142.1584  141.6376  168.0923 N.3     1  UNL1       -0.2659
     29 C         142.5739  142.0497  169.4735 C.3     1  UNL1        0.0980
     30 C         141.7852  141.5882  170.6629 C.3     1  UNL1        0.1681
     31 S         140.5810  140.7146  170.4713 S.O2    1  UNL1       -0.0072
     32 O         139.3757  139.8839  170.7987 O.2     1  UNL1       -0.1729
     33 O         140.5778  140.8381  171.9662 O.2     1  UNL1       -0.1729
     34 C         140.1655  140.3025  169.0901 C.3     1  UNL1        0.1681
     35 C         140.9542  140.7641  167.9006 C.3     1  UNL1        0.0980
@<TRIPOS>BOND
     1    11    12    2
     2    12    13    1
     3    13    14    1
     4    14    18    1
     5    18    19    1
     6    19    20    1
     7    20    21   ar
     8    21    22   ar
     9    22    23   ar
    10    23    24    1
    11    23    25   ar
    12    25    26   ar
    13    14    15    1
    14    15    16    1
    15    16    17    1
    16     1    17    1
    17     1     2    1
    18     2     3    1
    19     3     4    1
    20     4     5   ar
    21     5     6   ar
    22     6    27    1
    23    27    28    1
    24    28    29    1
    25    29    30    1
    26    30    31    1
    27    31    32    2
    28    31    33    2
    29    31    34    1
    30    34    35    1
    31     6     7   ar
    32     7     8   ar
    33     8     9   ar
    34     9    10    1
    35    17    12   am
    36    10     1    1
    37    26    20   ar
    38     9     4   ar
    39    35    28    1
@<TRIPOS>MOLECULE
*****
 35 39 0 0 0
SMALL
GASTEIGER

@<TRIPOS>ATOM
      1 C         139.6807  142.5252  159.4130 C.3     1  UNL1        0.0801
      2 C         139.0946  141.1813  159.7301 C.3     1  UNL1        0.0248
      3 C         138.0051  140.6160  158.8680 C.3     1  UNL1        0.0277
      4 C         137.5017  141.3945  157.6887 C.ar    1  UNL1       -0.0263
      5 C         136.4121  140.8291  156.8266 C.ar    1  UNL1       -0.0075
      6 C         135.9087  141.6075  155.6473 C.ar    1  UNL1       -0.0065
      7 C         136.4949  142.9514  155.3303 C.ar    1  UNL1       -0.0033
      8 C         137.5844  143.5168  156.1924 C.ar    1  UNL1       -0.0048
      9 C         138.0878  142.7383  157.3717 C.ar    1  UNL1       -0.0245
     10 C         139.1773  143.3036  158.2338 C.3     1  UNL1        0.0458
     11 O         139.0043  144.4373  161.6235 O.2     1  UNL1       -0.2734
     12 C         140.4320  144.0466  161.3804 C.2     1  UNL1        0.2420
     13 C         141.5215  144.6121  162.2426 C.3     1  UNL1        0.1587
     14 N         142.9492  144.2214  161.9995 N.3     1  UNL1       -0.2632
     15 C         143.2874  143.2653  160.8943 C.3     1  UNL1        0.0942
     16 C         142.1979  142.6999  160.0321 C.3     1  UNL1        0.1107
     17 N         140.7702  143.0906  160.2752 N.am    1  UNL1       -0.2783
     18 C         144.0387  144.7868  162.8617 C.3     1  UNL1        0.0773
     19 C         144.2264  144.2807  164.2611 C.3     1  UNL1        0.0437
     20 C         144.1631  142.8084  164.5411 C.ar    1  UNL1       -0.0206
     21 C         145.1780  141.8853  163.9345 C.ar    1  UNL1       -0.0019
     22 C         145.1147  140.4131  164.2144 C.ar    1  UNL1        0.0293
     23 C         144.0365  139.8639  165.1010 C.ar    1  UNL1        0.1401
     24 F         143.9732  138.3915  165.3809 F       1  UNL1       -0.2042
     25 C         143.0217  140.7869  165.7076 C.ar    1  UNL1        0.0293
     26 C         143.0850  142.2592  165.4276 C.ar    1  UNL1       -0.0019
     27 C         134.8193  141.0422  154.7852 C.3     1  UNL1        0.0992
     28 N         133.5560  140.5308  155.4120 N.3     1  UNL1       -0.2659
     29 C         132.3169  141.3760  155.3990 C.3     1  UNL1        0.0980
     30 C         131.0536  140.8647  156.0257 C.3     1  UNL1        0.1681
     31 S         131.0296  139.5083  156.6654 S.O2    1  UNL1       -0.0072
     32 O         130.5128  138.2995  157.3878 O.2     1  UNL1       -0.1729
     33 O         129.6110  139.9336  156.9033 O.2     1  UNL1       -0.1729
     34 C         132.2687  138.6631  156.6784 C.3     1  UNL1        0.1681
     35 C         133.5319  139.1743  156.0517 C.3     1  UNL1        0.0980
@<TRIPOS>BOND
     1    11    12    2
     2    12    13    1
     3    13    14    1
     4    14    18    1
     5    18    19    1
     6    19    20    1
     7    20    21   ar
     8    21    22   ar
     9    22    23   ar
    10    23    24    1
    11    23    25   ar
    12    25    26   ar
    13    14    15    1
    14    15    16    1
    15    16    17    1
    16     1    17    1
    17     1     2    1
    18     2     3    1
    19     3     4    1
    20     4     5   ar
    21     5     6   ar
    22     6    27    1
    23    27    28    1
    24    28    29    1
    25    29    30    1
    26    30    31    1
    27    31    32    2
    28    31    33    2
    29    31    34    1
    30    34    35    1
    31     6     7   ar
    32     7     8   ar
    33     8     9   ar
    34     9    10    1
    35    17    12   am
    36    10     1    1
    37    26    20   ar
    38     9     4   ar
    39    35    28    1
@<TRIPOS>MOLECULE
*****
 35 39 0 0 0
SMALL
GASTEIGER

@<TRIPOS>ATOM
      1 C         141.0723  138.7207  161.1053 C.3     1  UNL1        0.0801
      2 C         141.3614  137.5866  162.0435 C.3     1  UNL1        0.0248
      3 C         141.1710  137.7679  163.5203 C.3     1  UNL1        0.0277
      4 C         140.6915  139.0832  164.0589 C.ar    1  UNL1       -0.0263
      5 C         140.5011  139.2644  165.5357 C.ar    1  UNL1       -0.0075
      6 C         140.0216  140.5797  166.0742 C.ar    1  UNL1       -0.0065
      7 C         139.7325  141.7138  165.1360 C.ar    1  UNL1       -0.0033
      8 C         139.9229  141.5325  163.6592 C.ar    1  UNL1       -0.0048
      9 C         140.4024  140.2172  163.1207 C.ar    1  UNL1       -0.0245
     10 C         140.5928  140.0360  161.6439 C.3     1  UNL1        0.0458
     11 O         138.6898  138.6463  159.2838 O.2     1  UNL1       -0.2734
     12 C         140.0714  138.5023  158.7177 C.2     1  UNL1        0.2420
     13 C         140.2618  138.3211  157.2410 C.3     1  UNL1        0.1587
     14 N         141.6434  138.1771  156.6749 N.3     1  UNL1       -0.2632
     15 C         142.8347  138.2142  157.5857 C.3     1  UNL1        0.0942
     16 C         142.6443  138.3955  159.0625 C.3     1  UNL1        0.1107
     17 N         141.2627  138.5395  159.6285 N.am    1  UNL1       -0.2783
     18 C         141.8338  137.9959  155.1981 C.3     1  UNL1        0.0773
     19 C         142.7789  136.9495  154.6866 C.3     1  UNL1        0.0437
     20 C         142.7161  135.5524  155.2291 C.ar    1  UNL1       -0.0206
     21 C         143.8198  135.0375  156.1047 C.ar    1  UNL1       -0.0019
     22 C         143.7569  133.6405  156.6471 C.ar    1  UNL1        0.0293
     23 C         142.5904  132.7583  156.3140 C.ar    1  UNL1        0.1401
     24 F         142.5276  131.3612  156.8565 F       1  UNL1       -0.2042
     25 C         141.4867  133.2732  155.4384 C.ar    1  UNL1        0.0293
     26 C         141.5496  134.6702  154.8959 C.ar    1  UNL1       -0.0019
     27 C         139.8312  140.7609  167.5510 C.3     1  UNL1        0.0992
     28 N         140.8808  141.4612  168.3622 N.3     1  UNL1       -0.2659
     29 C         142.3288  141.1196  168.1704 C.3     1  UNL1        0.0980
     30 C         143.3784  141.8199  168.9816 C.3     1  UNL1        0.1681
     31 S         142.9800  142.8617  169.9845 S.O2    1  UNL1       -0.0072
     32 O         143.0989  143.9115  171.0493 O.2     1  UNL1       -0.1729
     33 O         144.4692  142.8847  170.1625 O.2     1  UNL1       -0.1729
     34 C         141.5321  143.2032  170.1763 C.3     1  UNL1        0.1681
     35 C         140.4825  142.5030  169.3651 C.3     1  UNL1        0.0980
@<TRIPOS>BOND
     1    11    12    2
     2    12    13    1
     3    13    14    1
     4    14    18    1
     5    18    19    1
     6    19    20    1
     7    20    21   ar
     8    21    22   ar
     9    22    23   ar
    10    23    24    1
    11    23    25   ar
    12    25    26   ar
    13    14    15    1
    14    15    16    1
    15    16    17    1
    16     1    17    1
    17     1     2    1
    18     2     3    1
    19     3     4    1
    20     4     5   ar
    21     5     6   ar
    22     6    27    1
    23    27    28    1
    24    28    29    1
    25    29    30    1
    26    30    31    1
    27    31    32    2
    28    31    33    2
    29    31    34    1
    30    34    35    1
    31     6     7   ar
    32     7     8   ar
    33     8     9   ar
    34     9    10    1
    35    17    12   am
    36    10     1    1
    37    26    20   ar
    38     9     4   ar
    39    35    28    1
