@<TRIPOS>MOLECULE
*****
 35 40 0 0 0
SMALL
GASTEIGER

@<TRIPOS>ATOM
      1 C         139.2973  139.3349  163.9866 C.3     1  UNL1        0.1534
      2 C         140.6322  139.0699  163.3559 C.3     1  UNL1        0.1067
      3 N         140.7281  138.8206  161.8799 N.3     1  UNL1       -0.2665
      4 C         142.0630  138.5556  161.2491 C.3     1  UNL1        0.0940
      5 C         142.1589  138.3064  159.7731 C.3     1  UNL1        0.1107
      6 N         140.9199  138.3220  158.9278 N.am    1  UNL1       -0.2764
      7 C         141.0158  138.0728  157.4518 C.2     1  UNL1        0.2302
      8 O         139.7768  138.0884  156.6065 O.2     1  UNL1       -0.2745
      9 C         139.5850  138.5870  159.5585 C.3     1  UNL1        0.1119
     10 C         139.4891  138.8363  161.0346 C.3     1  UNL1        0.1075
     11 C         138.1542  139.1013  161.6652 C.3     1  UNL1        0.1601
     12 O         138.0583  139.3506  163.1412 O.3     1  UNL1       -0.3489
     13 O         137.9171  139.5733  170.7162 O.2     1  UNL1       -0.2449
     14 C         138.9135  140.3320  169.8907 C.2     1  UNL1        0.3409
     15 O         139.8140  141.3399  170.5412 O.3     1  UNL1       -0.4451
     16 C         140.8105  142.0985  169.7157 C.3     1  UNL1        0.2134
     17 C         140.9065  141.8493  168.2397 C.3     1  UNL1        0.0740
     18 C         140.0060  140.8414  167.5892 C.ar    1  UNL1       -0.0124
     19 C         140.1019  140.5921  166.1131 C.ar    1  UNL1       -0.0058
     20 C         139.2014  139.5842  165.4626 C.ar    1  UNL1        0.0056
     21 C         138.2049  138.8255  166.2882 C.ar    1  UNL1       -0.0017
     22 C         138.1089  139.0748  167.7642 C.ar    1  UNL1        0.0059
     23 C         139.0095  140.0827  168.4147 C.ar    1  UNL1        0.0718
     24 C         142.3507  137.8078  156.8211 C.3     1  UNL1        0.1131
     25 C         142.7352  136.4092  156.4388 C.ar    1  UNL1        0.0062
     26 C         142.5862  135.9523  155.0178 C.ar    1  UNL1        0.0009
     27 C         142.9707  134.5537  154.6355 C.ar    1  UNL1        0.0386
     28 C         143.5043  133.6121  155.6741 C.ar    1  UNL1        0.1672
     29 N         143.6533  134.0690  157.0950 N.ar    1  UNL1       -0.2252
     30 C         143.2688  135.4676  157.4774 C.ar    1  UNL1        0.0968
     31 N         143.8888  132.2136  155.2918 N.ar    1  UNL1       -0.1708
     32 C         144.8686  131.3392  156.0166 C.ar    1  UNL1        0.2272
     33 N         144.9464  130.0290  155.2903 N.ar    1  UNL1       -0.1044
     34 N         144.0146  130.0937  154.1166 N.ar    1  UNL1       -0.0222
     35 N         143.3609  131.4438  154.1175 N.ar    1  UNL1       -0.0371
@<TRIPOS>BOND
     1    13    14    2
     2    14    15    1
     3    15    16    1
     4    16    17    1
     5    17    18    1
     6    18    19   ar
     7    19    20   ar
     8     1    20    1
     9     1     2    1
    10     2     3    1
    11     3     4    1
    12     4     5    1
    13     5     6    1
    14     6     7   am
    15     7     8    2
    16     7    24    1
    17    24    25    1
    18    25    26   ar
    19    26    27   ar
    20    27    28   ar
    21    28    31    1
    22    31    32   ar
    23    32    33   ar
    24    33    34   ar
    25    34    35   ar
    26    28    29   ar
    27    29    30   ar
    28     6     9    1
    29    10     9    1
    30    10    11    1
    31    11    12    1
    32    20    21   ar
    33    21    22   ar
    34    22    23   ar
    35    23    14    1
    36    23    18   ar
    37    12     1    1
    38    10     3    1
    39    30    25   ar
    40    35    31   ar
@<TRIPOS>MOLECULE
*****
 35 40 0 0 0
SMALL
GASTEIGER

@<TRIPOS>ATOM
      1 C         141.6643  140.0002  164.6223 C.3     1  UNL1        0.1534
      2 C         140.9078  139.2762  163.5483 C.3     1  UNL1        0.1067
      3 N         141.4524  139.2252  162.1516 N.3     1  UNL1       -0.2665
      4 C         140.6959  138.5011  161.0776 C.3     1  UNL1        0.0940
      5 C         141.2405  138.4502  159.6809 C.3     1  UNL1        0.1107
      6 N         142.5416  139.1233  159.3582 N.am    1  UNL1       -0.2764
      7 C         143.0862  139.0723  157.9615 C.2     1  UNL1        0.2302
      8 O         144.3872  139.7455  157.6388 O.2     1  UNL1       -0.2745
      9 C         143.2980  139.8473  160.4321 C.3     1  UNL1        0.1119
     10 C         142.7535  139.8983  161.8289 C.3     1  UNL1        0.1075
     11 C         143.5099  140.6224  162.9029 C.3     1  UNL1        0.1601
     12 O         142.9653  140.6733  164.2996 O.3     1  UNL1       -0.3489
     13 O         138.0529  139.8450  170.4690 O.2     1  UNL1       -0.2449
     14 C         139.4859  140.2041  170.2092 C.2     1  UNL1        0.3409
     15 O         140.3743  140.6141  171.3461 O.3     1  UNL1       -0.4451
     16 C         141.8074  140.9732  171.0863 C.3     1  UNL1        0.2134
     17 C         142.3520  140.9222  169.6896 C.3     1  UNL1        0.0740
     18 C         141.4635  140.5122  168.5527 C.ar    1  UNL1       -0.0124
     19 C         142.0081  140.4612  167.1559 C.ar    1  UNL1       -0.0058
     20 C         141.1197  140.0512  166.0191 C.ar    1  UNL1        0.0056
     21 C         139.6867  139.6921  166.2789 C.ar    1  UNL1       -0.0017
     22 C         139.1421  139.7431  167.6756 C.ar    1  UNL1        0.0059
     23 C         140.0305  140.1531  168.8125 C.ar    1  UNL1        0.0718
     24 C         142.3297  138.3483  156.8874 C.3     1  UNL1        0.1131
     25 C         142.7084  136.9443  156.5197 C.ar    1  UNL1        0.0062
     26 C         142.7328  136.5268  155.0791 C.ar    1  UNL1        0.0009
     27 C         143.1116  135.1228  154.7114 C.ar    1  UNL1        0.0386
     28 C         143.4660  134.1362  155.7843 C.ar    1  UNL1        0.1672
     29 N         143.4416  134.5535  157.2248 N.ar    1  UNL1       -0.2252
     30 C         143.0628  135.9576  157.5926 C.ar    1  UNL1        0.0968
     31 N         143.8447  132.7322  155.4166 N.ar    1  UNL1       -0.1708
     32 C         143.2171  131.9043  154.3346 C.ar    1  UNL1        0.2272
     33 N         143.9021  130.5699  154.3156 N.ar    1  UNL1       -0.1044
     34 N         144.9531  130.5732  155.3859 N.ar    1  UNL1       -0.0222
     35 N         144.9177  131.9094  156.0663 N.ar    1  UNL1       -0.0371
@<TRIPOS>BOND
     1    13    14    2
     2    14    15    1
     3    15    16    1
     4    16    17    1
     5    17    18    1
     6    18    19   ar
     7    19    20   ar
     8     1    20    1
     9     1     2    1
    10     2     3    1
    11     3     4    1
    12     4     5    1
    13     5     6    1
    14     6     7   am
    15     7     8    2
    16     7    24    1
    17    24    25    1
    18    25    26   ar
    19    26    27   ar
    20    27    28   ar
    21    28    31    1
    22    31    32   ar
    23    32    33   ar
    24    33    34   ar
    25    34    35   ar
    26    28    29   ar
    27    29    30   ar
    28     6     9    1
    29    10     9    1
    30    10    11    1
    31    11    12    1
    32    20    21   ar
    33    21    22   ar
    34    22    23   ar
    35    23    14    1
    36    23    18   ar
    37    12     1    1
    38    10     3    1
    39    30    25   ar
    40    35    31   ar
@<TRIPOS>MOLECULE
*****
 35 40 0 0 0
SMALL
GASTEIGER

@<TRIPOS>ATOM
      1 C         140.3645  141.1255  164.3043 C.3     1  UNL1        0.1534
      2 C         139.2806  141.6858  163.4319 C.3     1  UNL1        0.1067
      3 N         139.4981  141.8118  161.9532 N.3     1  UNL1       -0.2665
      4 C         138.4141  142.3721  161.0807 C.3     1  UNL1        0.0940
      5 C         138.6316  142.4982  159.6020 C.3     1  UNL1        0.1107
      6 N         139.9330  142.0640  158.9956 N.am    1  UNL1       -0.2764
      7 C         140.1505  142.1901  157.5169 C.2     1  UNL1        0.2302
      8 O         141.4520  141.7560  156.9105 O.2     1  UNL1       -0.2745
      9 C         141.0170  141.5038  159.8680 C.3     1  UNL1        0.1119
     10 C         140.7995  141.3777  161.3468 C.3     1  UNL1        0.1075
     11 C         141.8835  140.8174  162.2192 C.3     1  UNL1        0.1601
     12 O         141.6660  140.6913  163.6979 O.3     1  UNL1       -0.3489
     13 O         138.6255  139.5239  170.7589 O.2     1  UNL1       -0.2449
     14 C         139.4946  140.6210  170.2195 C.2     1  UNL1        0.3409
     15 O         140.1463  141.5920  171.1589 O.3     1  UNL1       -0.4451
     16 C         141.0155  142.6891  170.6195 C.3     1  UNL1        0.2134
     17 C         141.2330  142.8152  169.1408 C.3     1  UNL1        0.0740
     18 C         140.5813  141.8443  168.2014 C.ar    1  UNL1       -0.0124
     19 C         140.7987  141.9704  166.7225 C.ar    1  UNL1       -0.0058
     20 C         140.1471  140.9994  165.7832 C.ar    1  UNL1        0.0056
     21 C         139.2779  139.9023  166.3225 C.ar    1  UNL1       -0.0017
     22 C         139.0604  139.7762  167.8013 C.ar    1  UNL1        0.0059
     23 C         139.7121  140.7472  168.7407 C.ar    1  UNL1        0.0718
     24 C         139.0665  142.7504  156.6444 C.3     1  UNL1        0.1131
     25 C         139.0538  144.2125  156.3097 C.ar    1  UNL1        0.0062
     26 C         140.0275  145.1420  156.9716 C.ar    1  UNL1        0.0009
     27 C         140.0147  146.6041  156.6369 C.ar    1  UNL1        0.0386
     28 C         139.0283  147.1368  155.6403 C.ar    1  UNL1        0.1672
     29 N         138.0546  146.2074  154.9784 N.ar    1  UNL1       -0.2252
     30 C         138.0673  144.7452  155.3131 C.ar    1  UNL1        0.0968
     31 N         139.0155  148.5989  155.3056 N.ar    1  UNL1       -0.1708
     32 C         139.6533  149.2343  154.1058 C.ar    1  UNL1        0.2272
     33 N         139.3947  150.7104  154.1706 N.ar    1  UNL1       -0.1044
     34 N         138.5971  150.9872  155.4105 N.ar    1  UNL1       -0.0222
     35 N         138.3628  149.6823  156.1119 N.ar    1  UNL1       -0.0371
@<TRIPOS>BOND
     1    13    14    2
     2    14    15    1
     3    15    16    1
     4    16    17    1
     5    17    18    1
     6    18    19   ar
     7    19    20   ar
     8     1    20    1
     9     1     2    1
    10     2     3    1
    11     3     4    1
    12     4     5    1
    13     5     6    1
    14     6     7   am
    15     7     8    2
    16     7    24    1
    17    24    25    1
    18    25    26   ar
    19    26    27   ar
    20    27    28   ar
    21    28    31    1
    22    31    32   ar
    23    32    33   ar
    24    33    34   ar
    25    34    35   ar
    26    28    29   ar
    27    29    30   ar
    28     6     9    1
    29    10     9    1
    30    10    11    1
    31    11    12    1
    32    20    21   ar
    33    21    22   ar
    34    22    23   ar
    35    23    14    1
    36    23    18   ar
    37    12     1    1
    38    10     3    1
    39    30    25   ar
    40    35    31   ar
@<TRIPOS>MOLECULE
*****
 35 40 0 0 0
SMALL
GASTEIGER

@<TRIPOS>ATOM
      1 C         143.5535  140.0425  158.1386 C.3     1  UNL1        0.1534
      2 C         142.7976  141.0119  158.9980 C.3     1  UNL1        0.1067
      3 N         141.8728  140.5054  160.0649 N.3     1  UNL1       -0.2665
      4 C         141.1168  141.4749  160.9244 C.3     1  UNL1        0.0940
      5 C         140.1920  140.9683  161.9912 C.3     1  UNL1        0.1107
      6 N         140.0232  139.4923  162.1986 N.am    1  UNL1       -0.2764
      7 C         139.0984  138.9858  163.2654 C.2     1  UNL1        0.2302
      8 O         138.9296  137.5098  163.4728 O.2     1  UNL1       -0.2745
      9 C         140.7791  138.5229  161.3391 C.3     1  UNL1        0.1119
     10 C         141.7039  139.0294  160.2722 C.3     1  UNL1        0.1075
     11 C         142.4599  138.0600  159.4127 C.3     1  UNL1        0.1601
     12 O         143.3846  138.5665  158.3459 O.3     1  UNL1       -0.3489
     13 O         148.1811  143.2100  154.1633 O.2     1  UNL1       -0.2449
     14 C         147.2528  142.0686  153.8712 C.2     1  UNL1        0.3409
     15 O         147.2492  141.4337  152.5122 O.3     1  UNL1       -0.4451
     16 C         146.3209  140.2923  152.2200 C.3     1  UNL1        0.2134
     17 C         145.3961  139.7858  153.2868 C.3     1  UNL1        0.0740
     18 C         145.3996  140.4207  154.6458 C.ar    1  UNL1       -0.0124
     19 C         144.4748  139.9142  155.7127 C.ar    1  UNL1       -0.0058
     20 C         144.4783  140.5490  157.0717 C.ar    1  UNL1        0.0056
     21 C         145.4067  141.6904  157.3638 C.ar    1  UNL1       -0.0017
     22 C         146.3315  142.1970  156.2970 C.ar    1  UNL1        0.0059
     23 C         146.3280  141.5621  154.9380 C.ar    1  UNL1        0.0718
     24 C         138.3424  139.9552  164.1249 C.3     1  UNL1        0.1131
     25 C         138.8219  140.2585  165.5135 C.ar    1  UNL1        0.0062
     26 C         138.5062  139.3175  166.6382 C.ar    1  UNL1        0.0009
     27 C         138.9856  139.6207  168.0268 C.ar    1  UNL1        0.0386
     28 C         139.7808  140.8649  168.2907 C.ar    1  UNL1        0.1672
     29 N         140.0965  141.8059  167.1661 N.ar    1  UNL1       -0.2252
     30 C         139.6170  141.5027  165.7774 C.ar    1  UNL1        0.0968
     31 N         140.2602  141.1682  169.6792 N.ar    1  UNL1       -0.1708
     32 C         141.3655  140.4597  170.4048 C.ar    1  UNL1        0.2272
     33 N         141.5070  141.0867  171.7600 N.ar    1  UNL1       -0.1044
     34 N         140.4891  142.1829  171.8721 N.ar    1  UNL1       -0.0222
     35 N         139.7186  142.2332  170.5862 N.ar    1  UNL1       -0.0371
@<TRIPOS>BOND
     1    13    14    2
     2    14    15    1
     3    15    16    1
     4    16    17    1
     5    17    18    1
     6    18    19   ar
     7    19    20   ar
     8     1    20    1
     9     1     2    1
    10     2     3    1
    11     3     4    1
    12     4     5    1
    13     5     6    1
    14     6     7   am
    15     7     8    2
    16     7    24    1
    17    24    25    1
    18    25    26   ar
    19    26    27   ar
    20    27    28   ar
    21    28    31    1
    22    31    32   ar
    23    32    33   ar
    24    33    34   ar
    25    34    35   ar
    26    28    29   ar
    27    29    30   ar
    28     6     9    1
    29    10     9    1
    30    10    11    1
    31    11    12    1
    32    20    21   ar
    33    21    22   ar
    34    22    23   ar
    35    23    14    1
    36    23    18   ar
    37    12     1    1
    38    10     3    1
    39    30    25   ar
    40    35    31   ar
@<TRIPOS>MOLECULE
*****
 35 40 0 0 0
SMALL
GASTEIGER

@<TRIPOS>ATOM
      1 C         140.4052  143.6228  157.7654 C.3     1  UNL1        0.1534
      2 C         139.3855  143.6316  158.8654 C.3     1  UNL1        0.1067
      3 N         139.3875  142.5442  159.8985 N.3     1  UNL1       -0.2665
      4 C         138.3678  142.5529  160.9986 C.3     1  UNL1        0.0940
      5 C         138.3697  141.4655  162.0318 C.3     1  UNL1        0.1107
      6 N         139.3914  140.3692  161.9648 N.am    1  UNL1       -0.2764
      7 C         139.3933  139.2817  162.9980 C.2     1  UNL1        0.2302
      8 O         140.4150  138.1855  162.9310 O.2     1  UNL1       -0.2745
      9 C         140.4111  140.3604  160.8648 C.3     1  UNL1        0.1119
     10 C         140.4091  141.4479  159.8316 C.3     1  UNL1        0.1075
     11 C         141.4288  141.4391  158.7316 C.3     1  UNL1        0.1601
     12 O         141.4268  142.5266  157.6985 O.3     1  UNL1       -0.3489
     13 O         141.1488  147.7876  152.3476 O.2     1  UNL1       -0.2449
     14 C         140.3976  147.9727  153.6327 C.2     1  UNL1        0.3409
     15 O         139.6444  149.2452  153.8846 O.3     1  UNL1       -0.4451
     16 C         138.8932  149.4302  155.1696 C.3     1  UNL1        0.2134
     17 C         138.8951  148.3428  156.2028 C.3     1  UNL1        0.0740
     18 C         139.6482  147.0703  155.9509 C.ar    1  UNL1       -0.0124
     19 C         139.6501  145.9828  156.9841 C.ar    1  UNL1       -0.0058
     20 C         140.4033  144.7103  156.7322 C.ar    1  UNL1        0.0056
     21 C         141.1545  144.5253  155.4471 C.ar    1  UNL1       -0.0017
     22 C         141.1526  145.6127  154.4140 C.ar    1  UNL1        0.0059
     23 C         140.3995  146.8853  154.6658 C.ar    1  UNL1        0.0718
     24 C         138.3736  139.2905  164.0981 C.3     1  UNL1        0.1131
     25 C         138.7769  139.6722  165.4915 C.ar    1  UNL1        0.0062
     26 C         139.7610  140.7831  165.7097 C.ar    1  UNL1        0.0009
     27 C         140.1643  141.1648  167.1031 C.ar    1  UNL1        0.0386
     28 C         139.5834  140.4358  168.2783 C.ar    1  UNL1        0.1672
     29 N         138.5993  139.3250  168.0601 N.ar    1  UNL1       -0.2252
     30 C         138.1960  138.9432  166.6667 C.ar    1  UNL1        0.0968
     31 N         139.9867  140.8176  169.6717 N.ar    1  UNL1       -0.1708
     32 C         140.4338  142.1778  170.1188 C.ar    1  UNL1        0.2272
     33 N         140.7371  142.1071  171.5861 N.ar    1  UNL1       -0.1044
     34 N         140.4774  140.7030  172.0459 N.ar    1  UNL1       -0.0222
     35 N         140.0136  139.9061  170.8628 N.ar    1  UNL1       -0.0371
@<TRIPOS>BOND
     1    13    14    2
     2    14    15    1
     3    15    16    1
     4    16    17    1
     5    17    18    1
     6    18    19   ar
     7    19    20   ar
     8     1    20    1
     9     1     2    1
    10     2     3    1
    11     3     4    1
    12     4     5    1
    13     5     6    1
    14     6     7   am
    15     7     8    2
    16     7    24    1
    17    24    25    1
    18    25    26   ar
    19    26    27   ar
    20    27    28   ar
    21    28    31    1
    22    31    32   ar
    23    32    33   ar
    24    33    34   ar
    25    34    35   ar
    26    28    29   ar
    27    29    30   ar
    28     6     9    1
    29    10     9    1
    30    10    11    1
    31    11    12    1
    32    20    21   ar
    33    21    22   ar
    34    22    23   ar
    35    23    14    1
    36    23    18   ar
    37    12     1    1
    38    10     3    1
    39    30    25   ar
    40    35    31   ar
@<TRIPOS>MOLECULE
*****
 35 40 0 0 0
SMALL
GASTEIGER

@<TRIPOS>ATOM
      1 C         142.5485  143.4396  158.4089 C.3     1  UNL1        0.1534
      2 C         141.5652  142.7802  159.3299 C.3     1  UNL1        0.1067
      3 N         142.0535  141.9061  160.4468 N.3     1  UNL1       -0.2665
      4 C         141.0703  141.2466  161.3679 C.3     1  UNL1        0.0940
      5 C         141.5586  140.3726  162.4848 C.3     1  UNL1        0.1107
      6 N         143.0301  140.1579  162.6807 N.am    1  UNL1       -0.2764
      7 C         143.5184  139.2838  163.7976 C.2     1  UNL1        0.2302
      8 O         144.9900  139.0692  163.9935 O.2     1  UNL1       -0.2745
      9 C         144.0134  140.8173  161.7597 C.3     1  UNL1        0.1119
     10 C         143.5251  141.6914  160.6427 C.3     1  UNL1        0.1075
     11 C         144.5084  142.3508  159.7217 C.3     1  UNL1        0.1601
     12 O         144.0201  143.2249  158.6048 O.3     1  UNL1       -0.3489
     13 O         141.1916  146.8050  152.5708 O.2     1  UNL1       -0.2449
     14 C         140.5955  146.9359  153.9411 C.2     1  UNL1        0.3409
     15 O         139.5111  147.9409  154.1943 O.3     1  UNL1       -0.4451
     16 C         138.9150  148.0718  155.5646 C.3     1  UNL1        0.2134
     17 C         139.4033  147.1978  156.6815 C.3     1  UNL1        0.0740
     18 C         140.4876  146.1928  156.4282 C.ar    1  UNL1       -0.0124
     19 C         140.9759  145.3187  157.5452 C.ar    1  UNL1       -0.0058
     20 C         142.0602  144.3137  157.2919 C.ar    1  UNL1        0.0056
     21 C         142.6563  144.1828  155.9217 C.ar    1  UNL1       -0.0017
     22 C         142.1681  145.0569  154.8048 C.ar    1  UNL1        0.0059
     23 C         141.0837  146.0619  155.0580 C.ar    1  UNL1        0.0718
     24 C         142.5351  138.6244  164.7187 C.3     1  UNL1        0.1131
     25 C         142.1057  139.3173  165.9777 C.ar    1  UNL1        0.0062
     26 C         142.9098  139.1570  167.2338 C.ar    1  UNL1        0.0009
     27 C         142.4803  139.8499  168.4929 C.ar    1  UNL1        0.0386
     28 C         141.2467  140.7033  168.4960 C.ar    1  UNL1        0.1672
     29 N         140.4426  140.8636  167.2400 N.ar    1  UNL1       -0.2252
     30 C         140.8721  140.1707  165.9808 C.ar    1  UNL1        0.0968
     31 N         140.8173  141.3962  169.7550 N.ar    1  UNL1       -0.1708
     32 C         141.4140  141.1996  171.1172 C.ar    1  UNL1        0.2272
     33 N         140.6812  142.0894  172.0771 N.ar    1  UNL1       -0.1044
     34 N         139.6315  142.8358  171.3081 N.ar    1  UNL1       -0.0222
     35 N         139.7156  142.4075  169.8731 N.ar    1  UNL1       -0.0371
@<TRIPOS>BOND
     1    13    14    2
     2    14    15    1
     3    15    16    1
     4    16    17    1
     5    17    18    1
     6    18    19   ar
     7    19    20   ar
     8     1    20    1
     9     1     2    1
    10     2     3    1
    11     3     4    1
    12     4     5    1
    13     5     6    1
    14     6     7   am
    15     7     8    2
    16     7    24    1
    17    24    25    1
    18    25    26   ar
    19    26    27   ar
    20    27    28   ar
    21    28    31    1
    22    31    32   ar
    23    32    33   ar
    24    33    34   ar
    25    34    35   ar
    26    28    29   ar
    27    29    30   ar
    28     6     9    1
    29    10     9    1
    30    10    11    1
    31    11    12    1
    32    20    21   ar
    33    21    22   ar
    34    22    23   ar
    35    23    14    1
    36    23    18   ar
    37    12     1    1
    38    10     3    1
    39    30    25   ar
    40    35    31   ar
@<TRIPOS>MOLECULE
*****
 35 40 0 0 0
SMALL
GASTEIGER

@<TRIPOS>ATOM
      1 C         142.5939  137.5773  157.4508 C.3     1  UNL1        0.1534
      2 C         142.9783  137.1790  158.8449 C.3     1  UNL1        0.1067
      3 N         143.2692  138.2322  159.8725 N.3     1  UNL1       -0.2665
      4 C         143.6537  137.8339  161.2667 C.3     1  UNL1        0.0940
      5 C         143.9446  138.8871  162.2943 C.3     1  UNL1        0.1107
      6 N         143.8511  140.3387  161.9278 N.am    1  UNL1       -0.2764
      7 C         144.1420  141.3919  162.9555 C.2     1  UNL1        0.2302
      8 O         144.0484  142.8434  162.5890 O.2     1  UNL1       -0.2745
      9 C         143.4666  140.7370  160.5338 C.3     1  UNL1        0.1119
     10 C         143.1757  139.6837  159.5060 C.3     1  UNL1        0.1075
     11 C         142.7913  140.0821  158.1120 C.3     1  UNL1        0.1601
     12 O         142.5004  139.0289  157.0843 O.3     1  UNL1       -0.3489
     13 O         140.3923  133.6119  152.2857 O.2     1  UNL1       -0.2449
     14 C         141.4302  133.3645  153.3400 C.2     1  UNL1        0.3409
     15 O         142.1772  132.0641  153.3666 O.3     1  UNL1       -0.4451
     16 C         143.2151  131.8167  154.4209 C.3     1  UNL1        0.2134
     17 C         143.5060  132.8699  155.4486 C.3     1  UNL1        0.0740
     18 C         142.7590  134.1704  155.4220 C.ar    1  UNL1       -0.0124
     19 C         143.0500  135.2236  156.4497 C.ar    1  UNL1       -0.0058
     20 C         142.3030  136.5241  156.4231 C.ar    1  UNL1        0.0056
     21 C         141.2651  136.7714  155.3687 C.ar    1  UNL1       -0.0017
     22 C         140.9741  135.7183  154.3411 C.ar    1  UNL1        0.0059
     23 C         141.7211  134.4177  154.3677 C.ar    1  UNL1        0.0718
     24 C         144.5264  140.9936  164.3496 C.3     1  UNL1        0.1131
     25 C         143.4917  140.9705  165.4353 C.ar    1  UNL1        0.0062
     26 C         143.2247  142.2058  166.2433 C.ar    1  UNL1        0.0009
     27 C         142.1900  142.1828  167.3290 C.ar    1  UNL1        0.0386
     28 C         141.4222  140.9244  167.6068 C.ar    1  UNL1        0.1672
     29 N         141.6892  139.6892  166.7989 N.ar    1  UNL1       -0.2252
     30 C         142.7239  139.7122  165.7131 C.ar    1  UNL1        0.0968
     31 N         140.3875  140.9014  168.6925 N.ar    1  UNL1       -0.1708
     32 C         140.0938  142.0143  169.6543 C.ar    1  UNL1        0.2272
     33 N         138.9896  141.5621  170.5633 N.ar    1  UNL1       -0.1044
     34 N         138.6008  140.1697  170.1632 N.ar    1  UNL1       -0.0222
     35 N         139.4647  139.7613  169.0070 N.ar    1  UNL1       -0.0371
@<TRIPOS>BOND
     1    13    14    2
     2    14    15    1
     3    15    16    1
     4    16    17    1
     5    17    18    1
     6    18    19   ar
     7    19    20   ar
     8     1    20    1
     9     1     2    1
    10     2     3    1
    11     3     4    1
    12     4     5    1
    13     5     6    1
    14     6     7   am
    15     7     8    2
    16     7    24    1
    17    24    25    1
    18    25    26   ar
    19    26    27   ar
    20    27    28   ar
    21    28    31    1
    22    31    32   ar
    23    32    33   ar
    24    33    34   ar
    25    34    35   ar
    26    28    29   ar
    27    29    30   ar
    28     6     9    1
    29    10     9    1
    30    10    11    1
    31    11    12    1
    32    20    21   ar
    33    21    22   ar
    34    22    23   ar
    35    23    14    1
    36    23    18   ar
    37    12     1    1
    38    10     3    1
    39    30    25   ar
    40    35    31   ar
@<TRIPOS>MOLECULE
*****
 35 40 0 0 0
SMALL
GASTEIGER

@<TRIPOS>ATOM
      1 C         142.4674  137.8470  157.7563 C.3     1  UNL1        0.1534
      2 C         141.2650  138.0667  158.6258 C.3     1  UNL1        0.1067
      3 N         141.2488  139.1972  159.6115 N.3     1  UNL1       -0.2665
      4 C         140.0464  139.4169  160.4811 C.3     1  UNL1        0.0940
      5 C         140.0302  140.5474  161.4668 C.3     1  UNL1        0.1107
      6 N         141.2163  141.4582  161.5830 N.am    1  UNL1       -0.2764
      7 C         141.2001  142.5888  162.5687 C.2     1  UNL1        0.2302
      8 O         142.3863  143.4996  162.6849 O.2     1  UNL1       -0.2745
      9 C         142.4187  141.2386  160.7135 C.3     1  UNL1        0.1119
     10 C         142.4349  140.1080  159.7277 C.3     1  UNL1        0.1075
     11 C         143.6373  139.8883  158.8582 C.3     1  UNL1        0.1601
     12 O         143.6535  138.7578  157.8725 O.3     1  UNL1       -0.3489
     13 O         141.8265  133.4671  152.4974 O.2     1  UNL1       -0.2449
     14 C         142.5324  133.3249  153.8134 C.2     1  UNL1        0.3409
     15 O         143.2544  132.0523  154.1435 O.3     1  UNL1       -0.4451
     16 C         143.9602  131.9102  155.4594 C.3     1  UNL1        0.2134
     17 C         143.9440  133.0406  156.4452 C.3     1  UNL1        0.0740
     18 C         143.2219  134.3132  156.1150 C.ar    1  UNL1       -0.0124
     19 C         143.2057  135.4438  157.1008 C.ar    1  UNL1       -0.0058
     20 C         142.4836  136.7164  156.7706 C.ar    1  UNL1        0.0056
     21 C         141.7778  136.8586  155.4547 C.ar    1  UNL1       -0.0017
     22 C         141.7940  135.7281  154.4689 C.ar    1  UNL1        0.0059
     23 C         142.5161  134.4554  154.7991 C.ar    1  UNL1        0.0718
     24 C         139.9978  142.8085  163.4382 C.3     1  UNL1        0.1131
     25 C         140.0060  142.3377  164.8624 C.ar    1  UNL1        0.0062
     26 C         140.3719  143.2876  165.9642 C.ar    1  UNL1        0.0009
     27 C         140.3802  142.8169  167.3884 C.ar    1  UNL1        0.0386
     28 C         140.0226  141.3963  167.7108 C.ar    1  UNL1        0.1672
     29 N         139.6567  140.4464  166.6091 N.ar    1  UNL1       -0.2252
     30 C         139.6484  140.9171  165.1848 C.ar    1  UNL1        0.0968
     31 N         140.0308  140.9255  169.1350 N.ar    1  UNL1       -0.1708
     32 C         140.8413  141.5119  170.2527 C.ar    1  UNL1        0.2272
     33 N         140.5415  140.7345  171.5000 N.ar    1  UNL1       -0.1044
     34 N         139.5456  139.6677  171.1531 N.ar    1  UNL1       -0.0222
     35 N         139.2300  139.7857  169.6916 N.ar    1  UNL1       -0.0371
@<TRIPOS>BOND
     1    13    14    2
     2    14    15    1
     3    15    16    1
     4    16    17    1
     5    17    18    1
     6    18    19   ar
     7    19    20   ar
     8     1    20    1
     9     1     2    1
    10     2     3    1
    11     3     4    1
    12     4     5    1
    13     5     6    1
    14     6     7   am
    15     7     8    2
    16     7    24    1
    17    24    25    1
    18    25    26   ar
    19    26    27   ar
    20    27    28   ar
    21    28    31    1
    22    31    32   ar
    23    32    33   ar
    24    33    34   ar
    25    34    35   ar
    26    28    29   ar
    27    29    30   ar
    28     6     9    1
    29    10     9    1
    30    10    11    1
    31    11    12    1
    32    20    21   ar
    33    21    22   ar
    34    22    23   ar
    35    23    14    1
    36    23    18   ar
    37    12     1    1
    38    10     3    1
    39    30    25   ar
    40    35    31   ar
@<TRIPOS>MOLECULE
*****
 35 40 0 0 0
SMALL
GASTEIGER

@<TRIPOS>ATOM
      1 C         139.9674  144.8646  157.4730 C.3     1  UNL1        0.1534
      2 C         140.9398  144.9049  158.6143 C.3     1  UNL1        0.1067
      3 N         141.0037  143.7639  159.5859 N.3     1  UNL1       -0.2665
      4 C         141.9762  143.8042  160.7272 C.3     1  UNL1        0.0940
      5 C         142.0400  142.6632  161.6988 C.3     1  UNL1        0.1107
      6 N         141.1314  141.4818  161.5290 N.am    1  UNL1       -0.2764
      7 C         141.1952  140.3408  162.5006 C.2     1  UNL1        0.2302
      8 O         140.2866  139.1595  162.3308 O.2     1  UNL1       -0.2745
      9 C         140.1589  141.4415  160.3877 C.3     1  UNL1        0.1119
     10 C         140.0950  142.5826  159.4161 C.3     1  UNL1        0.1075
     11 C         139.1226  142.5423  158.2748 C.3     1  UNL1        0.1601
     12 O         139.0587  143.6833  157.3032 O.3     1  UNL1       -0.3489
     13 O         140.3089  149.2829  152.2182 O.2     1  UNL1       -0.2449
     14 C         139.7120  149.4287  153.5866 C.2     1  UNL1        0.3409
     15 O         139.0512  150.7155  153.9833 O.3     1  UNL1       -0.4451
     16 C         138.4543  150.8614  155.3517 C.3     1  UNL1        0.2134
     17 C         138.5181  149.7204  156.3233 C.3     1  UNL1        0.0740
     18 C         139.1789  148.4336  155.9265 C.ar    1  UNL1       -0.0124
     19 C         139.2428  147.2925  156.8982 C.ar    1  UNL1       -0.0058
     20 C         139.9035  146.0057  156.5014 C.ar    1  UNL1        0.0056
     21 C         140.5004  145.8599  155.1330 C.ar    1  UNL1       -0.0017
     22 C         140.4366  147.0008  154.1614 C.ar    1  UNL1        0.0059
     23 C         139.7758  148.2877  154.5582 C.ar    1  UNL1        0.0718
     24 C         142.1677  140.3811  163.6419 C.3     1  UNL1        0.1131
     25 C         141.7344  140.9068  164.9783 C.ar    1  UNL1        0.0062
     26 C         142.7374  141.5409  165.8959 C.ar    1  UNL1        0.0009
     27 C         142.3041  142.0666  167.2323 C.ar    1  UNL1        0.0386
     28 C         140.8678  141.9583  167.6510 C.ar    1  UNL1        0.1672
     29 N         139.8648  141.3242  166.7334 N.ar    1  UNL1       -0.2252
     30 C         140.2981  140.7984  165.3970 C.ar    1  UNL1        0.0968
     31 N         140.4345  142.4840  168.9873 N.ar    1  UNL1       -0.1708
     32 C         140.2595  141.6752  170.2385 C.ar    1  UNL1        0.2272
     33 N         139.8169  142.6021  171.3316 N.ar    1  UNL1       -0.1044
     34 N         139.7183  143.9838  170.7560 N.ar    1  UNL1       -0.0222
     35 N         140.0999  143.9108  169.3072 N.ar    1  UNL1       -0.0371
@<TRIPOS>BOND
     1    13    14    2
     2    14    15    1
     3    15    16    1
     4    16    17    1
     5    17    18    1
     6    18    19   ar
     7    19    20   ar
     8     1    20    1
     9     1     2    1
    10     2     3    1
    11     3     4    1
    12     4     5    1
    13     5     6    1
    14     6     7   am
    15     7     8    2
    16     7    24    1
    17    24    25    1
    18    25    26   ar
    19    26    27   ar
    20    27    28   ar
    21    28    31    1
    22    31    32   ar
    23    32    33   ar
    24    33    34   ar
    25    34    35   ar
    26    28    29   ar
    27    29    30   ar
    28     6     9    1
    29    10     9    1
    30    10    11    1
    31    11    12    1
    32    20    21   ar
    33    21    22   ar
    34    22    23   ar
    35    23    14    1
    36    23    18   ar
    37    12     1    1
    38    10     3    1
    39    30    25   ar
    40    35    31   ar
