@<TRIPOS>MOLECULE
*****
 35 39 0 0 0
SMALL
GASTEIGER

@<TRIPOS>ATOM
      1 N         142.4648  141.3458  167.1056 N.ar    1  UNL1       -0.2815
      2 C         142.6255  141.9831  168.4539 C.ar    1  UNL1        0.3316
      3 O         143.7635  142.8603  168.8846 O.2     1  UNL1       -0.2463
      4 N         141.4483  141.5891  169.2960 N.ar    1  UNL1       -0.2765
      5 C         141.2025  142.0031  170.7166 C.3     1  UNL1        0.1352
      6 C         140.5602  140.7083  168.4680 C.ar    1  UNL1        0.0989
      7 C         139.2606  140.0238  168.7720 C.ar    1  UNL1        0.1175
      8 N         138.5892  139.1890  167.7221 N.ar    1  UNL1       -0.2422
      9 C         139.2174  139.0387  166.3683 C.ar    1  UNL1        0.0850
     10 C         138.5460  138.2037  165.3184 C.ar    1  UNL1        0.0488
     11 C         139.1742  138.0534  163.9647 C.ar    1  UNL1        0.1416
     12 F         138.5029  137.2186  162.9148 F       1  UNL1       -0.2041
     13 C         140.4739  138.7380  163.6608 C.ar    1  UNL1        0.0291
     14 C         141.1453  139.5728  164.7106 C.ar    1  UNL1        0.0053
     15 C         140.5170  139.7232  166.0644 C.ar    1  UNL1        0.0352
     16 C         141.1884  140.5580  167.1143 C.ar    1  UNL1        0.0826
     17 C         141.1022  138.5876  162.3070 C.ar    1  UNL1        0.0216
     18 C         142.4548  137.9528  162.1742 C.ar    1  UNL1        0.0064
     19 C         143.0830  137.8025  160.8204 C.ar    1  UNL1        0.0577
     20 C         142.3586  138.2870  159.5994 C.ar    1  UNL1        0.2249
     21 N         141.0061  138.9217  159.7323 N.ar    1  UNL1       -0.2101
     22 C         140.3779  139.0720  161.0861 C.ar    1  UNL1        0.1021
     23 O         142.9869  138.1366  158.2457 O.3     1  UNL1       -0.4602
     24 C         142.5540  137.0241  157.3373 C.3     1  UNL1        0.2085
     25 C         143.2875  136.7764  156.0526 C.3     1  UNL1        0.0647
     26 C         143.9273  135.4436  155.7991 C.3     1  UNL1        0.0760
     27 N         143.3128  134.1972  156.3638 N.3     1  UNL1       -0.2702
     28 C         142.0566  133.6410  155.7616 C.3     1  UNL1        0.0897
     29 C         143.9545  133.5070  157.5308 C.3     1  UNL1        0.0897
     30 C         144.7563  141.6552  164.3185 C.3     1  UNL1        0.1191
     31 C         144.1479  140.5078  165.0691 C.3     1  UNL1        0.0524
     32 C         143.4140  141.4739  165.9511 C.3     1  UNL1        0.0947
     33 C         144.0224  142.6213  165.2004 C.3     1  UNL1        0.0524
     34 C         145.1870  142.1430  161.8032 C.3     1  UNL1        0.1740
     35 O         145.7054  141.7832  163.1640 O.3     1  UNL1       -0.3534
@<TRIPOS>BOND
     1    34    35    1
     2    30    35    1
     3    30    31    1
     4    31    32    1
     5    32     1    1
     6     1     2   ar
     7     2     3    2
     8     2     4   ar
     9     4     5    1
    10     4     6   ar
    11     6     7   ar
    12     7     8   ar
    13     8     9   ar
    14     9    10   ar
    15    10    11   ar
    16    11    12    1
    17    11    13   ar
    18    13    17    1
    19    17    18   ar
    20    18    19   ar
    21    19    20   ar
    22    20    23    1
    23    23    24    1
    24    24    25    1
    25    25    26    1
    26    26    27    1
    27    27    28    1
    28    27    29    1
    29    20    21   ar
    30    21    22   ar
    31    13    14   ar
    32    14    15   ar
    33    15    16   ar
    34    32    33    1
    35    33    30    1
    36    16     1   ar
    37    16     6   ar
    38    15     9   ar
    39    22    17   ar
@<TRIPOS>MOLECULE
*****
 35 39 0 0 0
SMALL
GASTEIGER

@<TRIPOS>ATOM
      1 N         139.7706  139.7148  166.4213 N.ar    1  UNL1       -0.2815
      2 C         138.9365  139.5745  167.6601 C.ar    1  UNL1        0.3316
      3 O         137.6866  138.7559  167.7934 O.2     1  UNL1       -0.2463
      4 N         139.5717  140.3964  168.7421 N.ar    1  UNL1       -0.2765
      5 C         139.0686  140.5442  170.1475 C.3     1  UNL1        0.1352
      6 C         140.7984  141.0447  168.1721 C.ar    1  UNL1        0.0989
      7 C         141.8194  141.9642  168.7739 C.ar    1  UNL1        0.1175
      8 N         142.9632  142.4624  167.9413 N.ar    1  UNL1       -0.2422
      9 C         143.0862  142.0411  166.5069 C.ar    1  UNL1        0.0850
     10 C         144.2301  142.5394  165.6743 C.ar    1  UNL1        0.0488
     11 C         144.3531  142.1181  164.2399 C.ar    1  UNL1        0.1416
     12 F         145.4970  142.6163  163.4073 F       1  UNL1       -0.2041
     13 C         143.3321  141.1986  163.6382 C.ar    1  UNL1        0.0291
     14 C         142.1882  140.7004  164.4708 C.ar    1  UNL1        0.0053
     15 C         142.0652  141.1216  165.9052 C.ar    1  UNL1        0.0352
     16 C         140.9214  140.6234  166.7378 C.ar    1  UNL1        0.0826
     17 C         143.4550  140.7773  162.2038 C.ar    1  UNL1        0.0216
     18 C         142.9862  141.6914  161.1108 C.ar    1  UNL1        0.0064
     19 C         143.1091  141.2701  159.6765 C.ar    1  UNL1        0.0577
     20 C         143.7009  139.9347  159.3351 C.ar    1  UNL1        0.2249
     21 N         144.1697  139.0206  160.4281 N.ar    1  UNL1       -0.2101
     22 C         144.0467  139.4419  161.8624 C.ar    1  UNL1        0.1021
     23 O         143.8238  139.5134  157.9007 O.3     1  UNL1       -0.4602
     24 C         142.7463  138.6836  157.2678 C.3     1  UNL1        0.2085
     25 C         142.6955  137.2050  157.5153 C.3     1  UNL1        0.0647
     26 C         143.1115  136.2493  156.4366 C.3     1  UNL1        0.0760
     27 N         142.8500  134.7807  156.5940 N.3     1  UNL1       -0.2702
     28 C         143.5503  134.0053  157.6703 C.3     1  UNL1        0.0897
     29 C         141.8882  134.0875  155.6752 C.3     1  UNL1        0.0897
     30 C         139.1204  138.1369  163.2273 C.3     1  UNL1        0.1191
     31 C         139.9343  137.7861  164.4375 C.3     1  UNL1        0.0524
     32 C         139.5013  139.0612  165.0983 C.3     1  UNL1        0.0947
     33 C         138.6874  139.4120  163.8881 C.3     1  UNL1        0.0524
     34 C         139.2935  138.1490  160.6350 C.3     1  UNL1        0.1740
     35 O         138.8511  137.4833  161.9043 O.3     1  UNL1       -0.3534
@<TRIPOS>BOND
     1    34    35    1
     2    30    35    1
     3    30    31    1
     4    31    32    1
     5    32     1    1
     6     1     2   ar
     7     2     3    2
     8     2     4   ar
     9     4     5    1
    10     4     6   ar
    11     6     7   ar
    12     7     8   ar
    13     8     9   ar
    14     9    10   ar
    15    10    11   ar
    16    11    12    1
    17    11    13   ar
    18    13    17    1
    19    17    18   ar
    20    18    19   ar
    21    19    20   ar
    22    20    23    1
    23    23    24    1
    24    24    25    1
    25    25    26    1
    26    26    27    1
    27    27    28    1
    28    27    29    1
    29    20    21   ar
    30    21    22   ar
    31    13    14   ar
    32    14    15   ar
    33    15    16   ar
    34    32    33    1
    35    33    30    1
    36    16     1   ar
    37    16     6   ar
    38    15     9   ar
    39    22    17   ar
@<TRIPOS>MOLECULE
*****
 35 39 0 0 0
SMALL
GASTEIGER

@<TRIPOS>ATOM
      1 N         142.5579  141.3310  167.0408 N.ar    1  UNL1       -0.2815
      2 C         142.7734  141.9626  168.3841 C.ar    1  UNL1        0.3316
      3 O         143.9389  142.8209  168.7781 O.2     1  UNL1       -0.2463
      4 N         141.6189  141.5854  169.2643 N.ar    1  UNL1       -0.2765
      5 C         141.4271  142.0001  170.6930 C.3     1  UNL1        0.1352
      6 C         140.6899  140.7205  168.4650 C.ar    1  UNL1        0.0989
      7 C         139.3904  140.0559  168.8110 C.ar    1  UNL1        0.1175
      8 N         138.6713  139.2341  167.7827 N.ar    1  UNL1       -0.2422
      9 C         139.2516  139.0768  166.4085 C.ar    1  UNL1        0.0850
     10 C         138.5325  138.2549  165.3802 C.ar    1  UNL1        0.0488
     11 C         139.1128  138.0977  164.0059 C.ar    1  UNL1        0.1416
     12 F         138.3937  137.2759  162.9776 F       1  UNL1       -0.2041
     13 C         140.4123  138.7624  163.6600 C.ar    1  UNL1        0.0291
     14 C         141.1314  139.5842  164.6883 C.ar    1  UNL1        0.0053
     15 C         140.5511  139.7415  166.0625 C.ar    1  UNL1        0.0352
     16 C         141.2702  140.5633  167.0908 C.ar    1  UNL1        0.0826
     17 C         140.9926  138.6052  162.2858 C.ar    1  UNL1        0.0216
     18 C         140.2146  139.0601  161.0866 C.ar    1  UNL1        0.0064
     19 C         140.7950  138.9028  159.7123 C.ar    1  UNL1        0.0577
     20 C         142.1532  138.2907  159.5373 C.ar    1  UNL1        0.2249
     21 N         142.9311  137.8359  160.7364 N.ar    1  UNL1       -0.2101
     22 C         142.3507  137.9931  162.1107 C.ar    1  UNL1        0.1021
     23 O         142.7335  138.1335  158.1631 O.3     1  UNL1       -0.4602
     24 C         142.6590  136.8081  157.4646 C.3     1  UNL1        0.2085
     25 C         141.7050  136.6144  156.3234 C.3     1  UNL1        0.0647
     26 C         141.1618  137.8045  155.5896 C.3     1  UNL1        0.0760
     27 N         139.7078  138.1557  155.7022 N.3     1  UNL1       -0.2702
     28 C         139.2920  139.4097  156.4126 C.3     1  UNL1        0.0897
     29 C         138.6697  137.2528  155.1046 C.3     1  UNL1        0.0897
     30 C         144.7597  141.6103  164.1793 C.3     1  UNL1        0.1191
     31 C         144.1578  140.4711  164.9473 C.3     1  UNL1        0.0524
     32 C         143.4699  141.4466  165.8556 C.3     1  UNL1        0.0947
     33 C         144.0719  142.5860  165.0876 C.3     1  UNL1        0.0524
     34 C         145.1152  142.1045  161.6536 C.3     1  UNL1        0.1740
     35 O         145.6718  141.7260  162.9941 O.3     1  UNL1       -0.3534
@<TRIPOS>BOND
     1    34    35    1
     2    30    35    1
     3    30    31    1
     4    31    32    1
     5    32     1    1
     6     1     2   ar
     7     2     3    2
     8     2     4   ar
     9     4     5    1
    10     4     6   ar
    11     6     7   ar
    12     7     8   ar
    13     8     9   ar
    14     9    10   ar
    15    10    11   ar
    16    11    12    1
    17    11    13   ar
    18    13    17    1
    19    17    18   ar
    20    18    19   ar
    21    19    20   ar
    22    20    23    1
    23    23    24    1
    24    24    25    1
    25    25    26    1
    26    26    27    1
    27    27    28    1
    28    27    29    1
    29    20    21   ar
    30    21    22   ar
    31    13    14   ar
    32    14    15   ar
    33    15    16   ar
    34    32    33    1
    35    33    30    1
    36    16     1   ar
    37    16     6   ar
    38    15     9   ar
    39    22    17   ar
@<TRIPOS>MOLECULE
*****
 35 39 0 0 0
SMALL
GASTEIGER

@<TRIPOS>ATOM
      1 N         142.8219  139.7061  165.9285 N.ar    1  UNL1       -0.2815
      2 C         143.1806  138.8768  167.1258 C.ar    1  UNL1        0.3316
      3 O         144.0624  137.6634  167.1258 O.2     1  UNL1       -0.2463
      4 N         142.5026  139.4741  168.3232 N.ar    1  UNL1       -0.2765
      5 C         142.5875  138.9628  169.7308 C.3     1  UNL1        0.1352
      6 C         141.7250  140.6725  167.8659 C.ar    1  UNL1        0.0989
      7 C         140.8627  141.6516  168.6059 C.ar    1  UNL1        0.1175
      8 N         140.1977  142.7742  167.8659 N.ar    1  UNL1       -0.2422
      9 C         140.3950  142.9175  166.3858 C.ar    1  UNL1        0.0850
     10 C         139.7300  144.0402  165.6458 C.ar    1  UNL1        0.0488
     11 C         139.9273  144.1835  164.1658 C.ar    1  UNL1        0.1416
     12 F         139.2623  145.3061  163.4258 F       1  UNL1       -0.2041
     13 C         140.7896  143.2043  163.4258 C.ar    1  UNL1        0.0291
     14 C         141.4546  142.0818  164.1658 C.ar    1  UNL1        0.0053
     15 C         141.2573  141.9384  165.6458 C.ar    1  UNL1        0.0352
     16 C         141.9223  140.8158  166.3858 C.ar    1  UNL1        0.0826
     17 C         140.9869  143.3477  161.9457 C.ar    1  UNL1        0.0216
     18 C         140.3327  142.3799  161.0046 C.ar    1  UNL1        0.0064
     19 C         140.5300  142.5233  159.5246 C.ar    1  UNL1        0.0577
     20 C         141.3815  143.6344  158.9856 C.ar    1  UNL1        0.2249
     21 N         142.0357  144.6021  159.9267 N.ar    1  UNL1       -0.2101
     22 C         141.8384  144.4587  161.4067 C.ar    1  UNL1        0.1021
     23 O         141.5788  143.7778  157.5056 O.3     1  UNL1       -0.4602
     24 C         142.8939  143.4095  156.8851 C.3     1  UNL1        0.2085
     25 C         143.6155  142.1737  157.3349 C.3     1  UNL1        0.0647
     26 C         145.0668  142.2461  157.7068 C.3     1  UNL1        0.0760
     27 N         146.1183  141.8946  156.6965 N.3     1  UNL1       -0.2702
     28 C         147.4088  142.6585  156.6603 C.3     1  UNL1        0.0897
     29 C         145.8795  140.7791  155.7225 C.3     1  UNL1        0.0897
     30 C         143.9326  139.1300  162.5302 C.3     1  UNL1        0.1191
     31 C         144.4734  139.8825  163.7096 C.3     1  UNL1        0.0524
     32 C         143.2820  139.4675  164.5209 C.3     1  UNL1        0.0947
     33 C         142.7411  138.7149  163.3413 C.3     1  UNL1        0.0524
     34 C         143.6723  139.5400  159.9779 C.3     1  UNL1        0.1740
     35 O         144.3927  138.8914  161.1225 O.3     1  UNL1       -0.3534
@<TRIPOS>BOND
     1    34    35    1
     2    30    35    1
     3    30    31    1
     4    31    32    1
     5    32     1    1
     6     1     2   ar
     7     2     3    2
     8     2     4   ar
     9     4     5    1
    10     4     6   ar
    11     6     7   ar
    12     7     8   ar
    13     8     9   ar
    14     9    10   ar
    15    10    11   ar
    16    11    12    1
    17    11    13   ar
    18    13    17    1
    19    17    18   ar
    20    18    19   ar
    21    19    20   ar
    22    20    23    1
    23    23    24    1
    24    24    25    1
    25    25    26    1
    26    26    27    1
    27    27    28    1
    28    27    29    1
    29    20    21   ar
    30    21    22   ar
    31    13    14   ar
    32    14    15   ar
    33    15    16   ar
    34    32    33    1
    35    33    30    1
    36    16     1   ar
    37    16     6   ar
    38    15     9   ar
    39    22    17   ar
@<TRIPOS>MOLECULE
*****
 35 39 0 0 0
SMALL
GASTEIGER

@<TRIPOS>ATOM
      1 N         139.9212  140.5854  166.6513 N.ar    1  UNL1       -0.2815
      2 C         139.5185  139.9893  167.9675 C.ar    1  UNL1        0.3316
      3 O         138.2881  139.1709  168.2252 O.2     1  UNL1       -0.2463
      4 N         140.5621  140.3555  168.9808 N.ar    1  UNL1       -0.2765
      5 C         140.5587  139.9674  170.4298 C.3     1  UNL1        0.1352
      6 C         141.6098  141.1778  168.2909 C.ar    1  UNL1        0.0989
      7 C         142.8733  141.8155  168.7876 C.ar    1  UNL1        0.1175
      8 N         143.7407  142.5954  167.8445 N.ar    1  UNL1       -0.2422
      9 C         143.3446  142.7376  166.4048 C.ar    1  UNL1        0.0850
     10 C         144.2121  143.5175  165.4617 C.ar    1  UNL1        0.0488
     11 C         143.8159  143.6597  164.0220 C.ar    1  UNL1        0.1416
     12 F         144.6833  144.4395  163.0789 F       1  UNL1       -0.2041
     13 C         142.5523  143.0219  163.5253 C.ar    1  UNL1        0.0291
     14 C         141.6850  142.2420  164.4683 C.ar    1  UNL1        0.0053
     15 C         142.0811  142.0998  165.9081 C.ar    1  UNL1        0.0352
     16 C         141.2137  141.3200  166.8511 C.ar    1  UNL1        0.0826
     17 C         142.1562  143.1640  162.0855 C.ar    1  UNL1        0.0216
     18 C         141.3534  144.3511  161.6422 C.ar    1  UNL1        0.0064
     19 C         140.9573  144.4932  160.2025 C.ar    1  UNL1        0.0577
     20 C         141.3640  143.4483  159.2060 C.ar    1  UNL1        0.2249
     21 N         142.1667  142.2613  159.6494 N.ar    1  UNL1       -0.2101
     22 C         142.5629  142.1192  161.0891 C.ar    1  UNL1        0.1021
     23 O         140.9679  143.5904  157.7663 O.3     1  UNL1       -0.4602
     24 C         141.7360  144.5107  156.8644 C.3     1  UNL1        0.2085
     25 C         141.3344  145.9509  156.7446 C.3     1  UNL1        0.0647
     26 C         139.8980  146.3461  156.9192 C.3     1  UNL1        0.0760
     27 N         139.0644  146.6924  155.7213 N.3     1  UNL1       -0.2702
     28 C         139.1782  148.0510  155.0957 C.3     1  UNL1        0.0897
     29 C         138.1169  145.6802  155.1488 C.3     1  UNL1        0.0897
     30 C         138.0939  140.3011  163.5377 C.3     1  UNL1        0.1191
     31 C         138.2118  141.3468  164.6067 C.3     1  UNL1        0.0524
     32 C         139.1643  140.4677  165.3616 C.3     1  UNL1        0.0947
     33 C         139.0463  139.4220  164.2926 C.3     1  UNL1        0.0524
     34 C         137.7369  139.1519  161.2352 C.3     1  UNL1        0.1740
     35 O         137.3370  140.1834  162.2481 O.3     1  UNL1       -0.3534
@<TRIPOS>BOND
     1    34    35    1
     2    30    35    1
     3    30    31    1
     4    31    32    1
     5    32     1    1
     6     1     2   ar
     7     2     3    2
     8     2     4   ar
     9     4     5    1
    10     4     6   ar
    11     6     7   ar
    12     7     8   ar
    13     8     9   ar
    14     9    10   ar
    15    10    11   ar
    16    11    12    1
    17    11    13   ar
    18    13    17    1
    19    17    18   ar
    20    18    19   ar
    21    19    20   ar
    22    20    23    1
    23    23    24    1
    24    24    25    1
    25    25    26    1
    26    26    27    1
    27    27    28    1
    28    27    29    1
    29    20    21   ar
    30    21    22   ar
    31    13    14   ar
    32    14    15   ar
    33    15    16   ar
    34    32    33    1
    35    33    30    1
    36    16     1   ar
    37    16     6   ar
    38    15     9   ar
    39    22    17   ar
@<TRIPOS>MOLECULE
*****
 35 39 0 0 0
SMALL
GASTEIGER

@<TRIPOS>ATOM
      1 N         142.4479  141.3182  167.1261 N.ar    1  UNL1       -0.2815
      2 C         142.6099  141.9724  168.4661 C.ar    1  UNL1        0.3316
      3 O         143.7522  142.8488  168.8870 O.2     1  UNL1       -0.2463
      4 N         141.4292  141.5963  169.3113 N.ar    1  UNL1       -0.2765
      5 C         141.1833  142.0306  170.7258 C.3     1  UNL1        0.1352
      6 C         140.5374  140.7097  168.4936 C.ar    1  UNL1        0.0989
      7 C         139.2334  140.0367  168.8044 C.ar    1  UNL1        0.1175
      8 N         138.5590  139.1917  167.7645 N.ar    1  UNL1       -0.2422
      9 C         139.1886  139.0199  166.4140 C.ar    1  UNL1        0.0850
     10 C         138.5142  138.1749  165.3741 C.ar    1  UNL1        0.0488
     11 C         139.1438  138.0030  164.0235 C.ar    1  UNL1        0.1416
     12 F         138.4694  137.1581  162.9837 F       1  UNL1       -0.2041
     13 C         140.4478  138.6761  163.7128 C.ar    1  UNL1        0.0291
     14 C         141.1222  139.5210  164.7526 C.ar    1  UNL1        0.0053
     15 C         140.4926  139.6929  166.1032 C.ar    1  UNL1        0.0352
     16 C         141.1670  140.5378  167.1430 C.ar    1  UNL1        0.0826
     17 C         141.0774  138.5042  162.3622 C.ar    1  UNL1        0.0216
     18 C         140.3180  138.8869  161.1265 C.ar    1  UNL1        0.0064
     19 C         140.9477  138.7150  159.7760 C.ar    1  UNL1        0.0577
     20 C         142.3367  138.1604  159.6611 C.ar    1  UNL1        0.2249
     21 N         143.0960  137.7777  160.8968 N.ar    1  UNL1       -0.2101
     22 C         142.4664  137.9496  162.2473 C.ar    1  UNL1        0.1021
     23 O         142.9663  137.9885  158.3105 O.3     1  UNL1       -0.4602
     24 C         142.9837  139.1323  157.3401 C.3     1  UNL1        0.2085
     25 C         143.8485  140.3286  157.6064 C.3     1  UNL1        0.0647
     26 C         143.4400  141.3337  158.6422 C.3     1  UNL1        0.0760
     27 N         142.4526  142.4085  158.2961 N.3     1  UNL1       -0.2702
     28 C         140.9845  142.1011  158.2795 C.3     1  UNL1        0.0897
     29 C         142.9333  143.7906  157.9665 C.3     1  UNL1        0.0897
     30 C         144.7456  141.5772  164.3390 C.3     1  UNL1        0.1191
     31 C         144.0066  142.5590  165.1992 C.3     1  UNL1        0.0524
     32 C         143.3996  141.4255  165.9716 C.3     1  UNL1        0.0947
     33 C         144.1387  140.4436  165.1115 C.3     1  UNL1        0.0524
     34 C         145.2074  142.1650  161.8508 C.3     1  UNL1        0.1740
     35 O         145.6974  141.6845  163.1846 O.3     1  UNL1       -0.3534
@<TRIPOS>BOND
     1    34    35    1
     2    30    35    1
     3    30    31    1
     4    31    32    1
     5    32     1    1
     6     1     2   ar
     7     2     3    2
     8     2     4   ar
     9     4     5    1
    10     4     6   ar
    11     6     7   ar
    12     7     8   ar
    13     8     9   ar
    14     9    10   ar
    15    10    11   ar
    16    11    12    1
    17    11    13   ar
    18    13    17    1
    19    17    18   ar
    20    18    19   ar
    21    19    20   ar
    22    20    23    1
    23    23    24    1
    24    24    25    1
    25    25    26    1
    26    26    27    1
    27    27    28    1
    28    27    29    1
    29    20    21   ar
    30    21    22   ar
    31    13    14   ar
    32    14    15   ar
    33    15    16   ar
    34    32    33    1
    35    33    30    1
    36    16     1   ar
    37    16     6   ar
    38    15     9   ar
    39    22    17   ar
@<TRIPOS>MOLECULE
*****
 35 39 0 0 0
SMALL
GASTEIGER

@<TRIPOS>ATOM
      1 N         140.1017  139.9849  166.6403 N.ar    1  UNL1       -0.2815
      2 C         139.3724  139.9210  167.9494 C.ar    1  UNL1        0.3316
      3 O         138.1243  139.1363  168.2260 O.2     1  UNL1       -0.2463
      4 N         140.1103  140.7796  168.9335 N.ar    1  UNL1       -0.2765
      5 C         139.7297  141.0042  170.3669 C.3     1  UNL1        0.1352
      6 C         141.2957  141.3741  168.2325 C.ar    1  UNL1        0.0989
      7 C         142.3792  142.2992  168.7016 C.ar    1  UNL1        0.1175
      8 N         143.4574  142.7332  167.7534 N.ar    1  UNL1       -0.2422
      9 C         143.4521  142.2421  166.3361 C.ar    1  UNL1        0.0850
     10 C         144.5303  142.6761  165.3879 C.ar    1  UNL1        0.0488
     11 C         144.5250  142.1850  163.9706 C.ar    1  UNL1        0.1416
     12 F         145.6032  142.6190  163.0224 F       1  UNL1       -0.2041
     13 C         143.4415  141.2598  163.5015 C.ar    1  UNL1        0.0291
     14 C         142.3633  140.8258  164.4497 C.ar    1  UNL1        0.0053
     15 C         142.3686  141.3170  165.8670 C.ar    1  UNL1        0.0352
     16 C         141.2904  140.8830  166.8152 C.ar    1  UNL1        0.0826
     17 C         143.4361  140.7687  162.0842 C.ar    1  UNL1        0.0216
     18 C         142.6642  141.5131  161.0353 C.ar    1  UNL1        0.0064
     19 C         142.6589  141.0220  159.6180 C.ar    1  UNL1        0.0577
     20 C         143.4255  139.7864  159.2496 C.ar    1  UNL1        0.2249
     21 N         144.1974  139.0420  160.2984 N.ar    1  UNL1       -0.2101
     22 C         144.2027  139.5331  161.7157 C.ar    1  UNL1        0.1021
     23 O         143.4202  139.2952  157.8323 O.3     1  UNL1       -0.4602
     24 C         142.1186  139.0346  157.1337 C.3     1  UNL1        0.2085
     25 C         141.1833  137.9855  157.6575 C.3     1  UNL1        0.0647
     26 C         139.7450  137.9828  157.2316 C.3     1  UNL1        0.0760
     27 N         138.9738  139.2686  157.1863 N.3     1  UNL1       -0.2702
     28 C         138.4564  139.7870  155.8772 C.3     1  UNL1        0.0897
     29 C         138.7200  140.0358  158.4499 C.3     1  UNL1        0.0897
     30 C         139.1584  138.2719  163.5923 C.3     1  UNL1        0.1191
     31 C         139.8718  137.8797  164.8522 C.3     1  UNL1        0.0524
     32 C         139.7110  139.2753  165.3778 C.3     1  UNL1        0.0947
     33 C         138.9976  139.6676  164.1179 C.3     1  UNL1        0.0524
     34 C         137.6369  138.0855  161.4946 C.3     1  UNL1        0.1740
     35 O         138.7677  137.5624  162.3298 O.3     1  UNL1       -0.3534
@<TRIPOS>BOND
     1    34    35    1
     2    30    35    1
     3    30    31    1
     4    31    32    1
     5    32     1    1
     6     1     2   ar
     7     2     3    2
     8     2     4   ar
     9     4     5    1
    10     4     6   ar
    11     6     7   ar
    12     7     8   ar
    13     8     9   ar
    14     9    10   ar
    15    10    11   ar
    16    11    12    1
    17    11    13   ar
    18    13    17    1
    19    17    18   ar
    20    18    19   ar
    21    19    20   ar
    22    20    23    1
    23    23    24    1
    24    24    25    1
    25    25    26    1
    26    26    27    1
    27    27    28    1
    28    27    29    1
    29    20    21   ar
    30    21    22   ar
    31    13    14   ar
    32    14    15   ar
    33    15    16   ar
    34    32    33    1
    35    33    30    1
    36    16     1   ar
    37    16     6   ar
    38    15     9   ar
    39    22    17   ar
@<TRIPOS>MOLECULE
*****
 35 39 0 0 0
SMALL
GASTEIGER

@<TRIPOS>ATOM
      1 N         142.4588  141.5913  167.2619 N.ar    1  UNL1       -0.2815
      2 C         142.8080  141.9560  168.6744 C.ar    1  UNL1        0.3316
      3 O         144.0175  142.7274  169.1126 O.2     1  UNL1       -0.2463
      4 N         141.7352  141.4139  169.5717 N.ar    1  UNL1       -0.2765
      5 C         141.6835  141.5481  171.0648 C.3     1  UNL1        0.1352
      6 C         140.7230  140.7141  168.7139 C.ar    1  UNL1        0.0989
      7 C         139.4520  139.9913  169.0482 C.ar    1  UNL1        0.1175
      8 N         138.6282  139.3780  167.9550 N.ar    1  UNL1       -0.2422
      9 C         139.0754  139.4876  166.5274 C.ar    1  UNL1        0.0850
     10 C         138.2515  138.8743  165.4341 C.ar    1  UNL1        0.0488
     11 C         138.6988  138.9839  164.0066 C.ar    1  UNL1        0.1416
     12 F         137.8750  138.3707  162.9133 F       1  UNL1       -0.2041
     13 C         139.9700  139.7068  163.6723 C.ar    1  UNL1        0.0291
     14 C         140.7938  140.3201  164.7655 C.ar    1  UNL1        0.0053
     15 C         140.3465  140.2105  166.1931 C.ar    1  UNL1        0.0352
     16 C         141.1703  140.8237  167.2863 C.ar    1  UNL1        0.0826
     17 C         140.4172  139.8164  162.2447 C.ar    1  UNL1        0.0216
     18 C         141.1430  138.6749  161.5964 C.ar    1  UNL1        0.0064
     19 C         141.5903  138.7845  160.1688 C.ar    1  UNL1        0.0577
     20 C         141.3118  140.0356  159.3896 C.ar    1  UNL1        0.2249
     21 N         140.5860  141.1771  160.0379 N.ar    1  UNL1       -0.2101
     22 C         140.1388  141.0675  161.4655 C.ar    1  UNL1        0.1021
     23 O         141.7590  140.1452  157.9620 O.3     1  UNL1       -0.4602
     24 C         142.9843  140.9397  157.6188 C.3     1  UNL1        0.2085
     25 C         142.8833  142.4219  157.4114 C.3     1  UNL1        0.0647
     26 C         143.1507  143.3587  158.5519 C.3     1  UNL1        0.0760
     27 N         142.2314  144.5173  158.8021 N.3     1  UNL1       -0.2702
     28 C         141.4768  144.6103  160.0952 C.3     1  UNL1        0.0897
     29 C         142.0668  145.5829  157.7594 C.3     1  UNL1        0.0897
     30 C         144.3881  142.4185  164.3110 C.3     1  UNL1        0.1191
     31 C         144.1825  141.1793  165.1309 C.3     1  UNL1        0.0524
     32 C         143.2580  141.9339  166.0396 C.3     1  UNL1        0.0947
     33 C         143.4635  143.1731  165.2197 C.3     1  UNL1        0.0524
     34 C         144.5193  143.4126  161.9142 C.3     1  UNL1        0.1740
     35 O         145.1872  142.7611  163.0887 O.3     1  UNL1       -0.3534
@<TRIPOS>BOND
     1    34    35    1
     2    30    35    1
     3    30    31    1
     4    31    32    1
     5    32     1    1
     6     1     2   ar
     7     2     3    2
     8     2     4   ar
     9     4     5    1
    10     4     6   ar
    11     6     7   ar
    12     7     8   ar
    13     8     9   ar
    14     9    10   ar
    15    10    11   ar
    16    11    12    1
    17    11    13   ar
    18    13    17    1
    19    17    18   ar
    20    18    19   ar
    21    19    20   ar
    22    20    23    1
    23    23    24    1
    24    24    25    1
    25    25    26    1
    26    26    27    1
    27    27    28    1
    28    27    29    1
    29    20    21   ar
    30    21    22   ar
    31    13    14   ar
    32    14    15   ar
    33    15    16   ar
    34    32    33    1
    35    33    30    1
    36    16     1   ar
    37    16     6   ar
    38    15     9   ar
    39    22    17   ar
@<TRIPOS>MOLECULE
*****
 35 39 0 0 0
SMALL
GASTEIGER

@<TRIPOS>ATOM
      1 N         142.7953  139.7368  165.9586 N.ar    1  UNL1       -0.2815
      2 C         143.2216  138.8420  167.0844 C.ar    1  UNL1        0.3316
      3 O         144.1187  137.6454  166.9685 O.2     1  UNL1       -0.2463
      4 N         142.5933  139.3539  168.3467 N.ar    1  UNL1       -0.2765
      5 C         142.7518  138.7591  169.7145 C.3     1  UNL1        0.1352
      6 C         141.7787  140.5650  168.0009 C.ar    1  UNL1        0.0989
      7 C         140.9394  141.4829  168.8393 C.ar    1  UNL1        0.1175
      8 N         140.2249  142.6375  168.2017 N.ar    1  UNL1       -0.2422
      9 C         140.3497  142.8741  166.7258 C.ar    1  UNL1        0.0850
     10 C         139.6352  144.0287  166.0883 C.ar    1  UNL1        0.0488
     11 C         139.7600  144.2654  164.6123 C.ar    1  UNL1        0.1416
     12 F         139.0456  145.4199  163.9748 F       1  UNL1       -0.2041
     13 C         140.5994  143.3474  163.7739 C.ar    1  UNL1        0.0291
     14 C         141.3139  142.1929  164.4115 C.ar    1  UNL1        0.0053
     15 C         141.1890  141.9562  165.8874 C.ar    1  UNL1        0.0352
     16 C         141.9035  140.8017  166.5249 C.ar    1  UNL1        0.0826
     17 C         140.7242  143.5840  162.2980 C.ar    1  UNL1        0.0216
     18 C         139.6555  143.0935  161.3667 C.ar    1  UNL1        0.0064
     19 C         139.7803  143.3301  159.8907 C.ar    1  UNL1        0.0577
     20 C         140.9739  144.0573  159.3461 C.ar    1  UNL1        0.2249
     21 N         142.0426  144.5479  160.2773 N.ar    1  UNL1       -0.2101
     22 C         141.9178  144.3112  161.7533 C.ar    1  UNL1        0.1021
     23 O         141.0988  144.2940  157.8701 O.3     1  UNL1       -0.4602
     24 C         139.9691  144.9284  157.1141 C.3     1  UNL1        0.2085
     25 C         140.1661  146.2575  156.4472 C.3     1  UNL1        0.0647
     26 C         138.9983  146.9659  155.8272 C.3     1  UNL1        0.0760
     27 N         139.1495  148.3762  155.3391 N.3     1  UNL1       -0.2702
     28 C         139.9746  148.6633  154.1196 C.3     1  UNL1        0.0897
     29 C         138.4759  149.4993  156.0703 C.3     1  UNL1        0.0897
     30 C         143.7513  139.3876  162.4832 C.3     1  UNL1        0.1191
     31 C         142.6214  138.8791  163.3287 C.3     1  UNL1        0.0524
     32 C         143.1912  139.5921  164.5190 C.3     1  UNL1        0.0947
     33 C         144.3212  140.1006  163.6735 C.3     1  UNL1        0.0524
     34 C         143.8019  140.3204  160.0589 C.3     1  UNL1        0.1740
     35 O         144.1472  139.2429  161.0436 O.3     1  UNL1       -0.3534
@<TRIPOS>BOND
     1    34    35    1
     2    30    35    1
     3    30    31    1
     4    31    32    1
     5    32     1    1
     6     1     2   ar
     7     2     3    2
     8     2     4   ar
     9     4     5    1
    10     4     6   ar
    11     6     7   ar
    12     7     8   ar
    13     8     9   ar
    14     9    10   ar
    15    10    11   ar
    16    11    12    1
    17    11    13   ar
    18    13    17    1
    19    17    18   ar
    20    18    19   ar
    21    19    20   ar
    22    20    23    1
    23    23    24    1
    24    24    25    1
    25    25    26    1
    26    26    27    1
    27    27    28    1
    28    27    29    1
    29    20    21   ar
    30    21    22   ar
    31    13    14   ar
    32    14    15   ar
    33    15    16   ar
    34    32    33    1
    35    33    30    1
    36    16     1   ar
    37    16     6   ar
    38    15     9   ar
    39    22    17   ar
