@<TRIPOS>MOLECULE
*****
 48 52 0 0 0
SMALL
GASTEIGER

@<TRIPOS>ATOM
      1 C         140.2750  142.1919  164.3681 C.ar    1  UNL1        0.1443
      2 N         140.0743  143.6663  164.1789 N.ar    1  UNL1       -0.2302
      3 C         140.0721  144.2518  162.7978 C.ar    1  UNL1        0.0878
      4 C         139.8714  145.7262  162.6086 C.ar    1  UNL1        0.0193
      5 C         139.8693  146.3116  161.2276 C.ar    1  UNL1        0.0022
      6 C         140.0678  145.4227  160.0358 C.ar    1  UNL1        0.0085
      7 C         140.2684  143.9483  160.2250 C.ar    1  UNL1        0.0477
      8 C         140.2706  143.3628  161.6060 C.ar    1  UNL1        0.0818
      9 C         140.4713  141.8884  161.7953 C.ar    1  UNL1        0.2676
     10 O         140.6698  140.9994  160.6035 O.2     1  UNL1       -0.2665
     11 N         140.4735  141.3030  163.1763 N.ar    1  UNL1       -0.2613
     12 C         140.6741  139.8285  163.3656 C.ar    1  UNL1        0.0680
     13 C         139.5486  138.8766  163.0877 C.ar    1  UNL1        0.0176
     14 C         139.7493  137.4023  163.2770 C.ar    1  UNL1        0.0015
     15 C         141.0754  136.8797  163.7441 C.ar    1  UNL1        0.0001
     16 C         142.2009  137.8315  164.0220 C.ar    1  UNL1        0.0015
     17 C         142.0003  139.3059  163.8327 C.ar    1  UNL1        0.0176
     18 C         140.4669  143.0593  159.0332 C.1     1  UNL1       -0.0642
     19 C         140.6654  142.1703  157.8414 C.1     1  UNL1       -0.0864
     20 C         140.8639  141.2814  156.6497 C.3     1  UNL1        0.0769
     21 C         142.1880  140.6137  156.4243 C.3     1  UNL1        0.0235
     22 C         143.3734  140.9975  157.2595 C.3     1  UNL1        0.0863
     23 C         143.6235  140.3082  158.5682 C.2     1  UNL1        0.2257
     24 O         143.6238  138.8099  158.6387 O.2     1  UNL1       -0.2749
     25 N         143.8733  141.1174  159.8063 N.am    1  UNL1       -0.2795
     26 C         143.9032  142.6148  159.8898 C.3     1  UNL1        0.0935
     27 C         144.1854  142.9941  161.3134 C.3     1  UNL1        0.0233
     28 C         144.3300  141.7311  162.1096 C.3     1  UNL1        0.0233
     29 C         144.1371  140.5713  161.1782 C.3     1  UNL1        0.0935
     30 C         140.2772  141.6064  165.7491 C.3     1  UNL1        0.1282
     31 C         139.1578  139.4632  166.6996 C.3     1  UNL1        0.0022
     32 C         139.0610  140.8953  166.2642 C.3     1  UNL1        0.0273
     33 N         141.4955  141.7321  166.6151 N.pl3   1  UNL1       -0.3129
     34 H         142.3912  141.6081  166.2256 H       1  UNL1        0.1486
     35 C         141.3493  142.0465  168.0744 C.ar    1  UNL1        0.1440
     36 N         140.6566  143.3055  168.5046 N.ar    1  UNL1       -0.1985
     37 C         140.5103  143.6199  169.9640 C.ar    1  UNL1        0.2160
     38 N         139.8176  144.8789  170.3941 N.pl3   1  UNL1       -0.3274
     39 N         141.0568  142.6754  170.9931 N.ar    1  UNL1       -0.1987
     40 C         141.7495  141.4163  170.5629 C.ar    1  UNL1        0.1407
     41 N         142.2959  140.4718  171.5921 N.pl3   1  UNL1       -0.3419
     42 C         141.8957  141.1019  169.1036 C.ar    1  UNL1        0.1308
     43 H         139.4590  145.4989  169.7186 H       1  UNL1        0.1452
     44 H         139.7216  145.0853  171.3520 H       1  UNL1        0.1452
     45 H         142.1999  140.6781  172.5499 H       1  UNL1        0.1437
     46 H         142.7506  139.6454  171.3097 H       1  UNL1        0.1437
     47 C         142.5884  139.8429  168.6734 C.1     1  UNL1        0.1061
     48 N         143.2811  138.5838  168.2433 N.1     1  UNL1       -0.1906
@<TRIPOS>BOND
     1    31    32    1
     2    30    32    1
     3    30    33    1
     4    33    35    1
     5    35    36   ar
     6    36    37   ar
     7    37    38    1
     8    37    39   ar
     9    39    40   ar
    10    40    41    1
    11    40    42   ar
    12    42    47    1
    13    47    48    3
    14    30     1    1
    15     1     2   ar
    16     2     3   ar
    17     3     4   ar
    18     4     5   ar
    19     5     6   ar
    20     6     7   ar
    21     7    18    1
    22    18    19    3
    23    19    20    1
    24    20    21    1
    25    21    22    1
    26    22    23    1
    27    23    24    2
    28    23    25   am
    29    25    26    1
    30    26    27    1
    31    27    28    1
    32    28    29    1
    33     7     8   ar
    34     8     9   ar
    35     9    10    2
    36     9    11   ar
    37    11    12    1
    38    12    13   ar
    39    13    14   ar
    40    14    15   ar
    41    15    16   ar
    42    16    17   ar
    43    42    35   ar
    44    11     1   ar
    45    17    12   ar
    46     8     3   ar
    47    29    25    1
    48    33    34    1
    49    38    43    1
    50    38    44    1
    51    41    45    1
    52    41    46    1
@<TRIPOS>MOLECULE
*****
 48 52 0 0 0
SMALL
GASTEIGER

@<TRIPOS>ATOM
      1 C         140.8304  140.1442  164.2447 C.ar    1  UNL1        0.1443
      2 N         141.6536  139.0084  163.7134 N.ar    1  UNL1       -0.2302
      3 C         141.8662  138.8633  162.2356 C.ar    1  UNL1        0.0878
      4 C         142.6894  137.7275  161.7043 C.ar    1  UNL1        0.0193
      5 C         142.9020  137.5824  160.2265 C.ar    1  UNL1        0.0022
      6 C         142.2914  138.5731  159.2801 C.ar    1  UNL1        0.0085
      7 C         141.4682  139.7089  159.8114 C.ar    1  UNL1        0.0477
      8 C         141.2556  139.8540  161.2892 C.ar    1  UNL1        0.0818
      9 C         140.4324  140.9898  161.8205 C.ar    1  UNL1        0.2676
     10 O         139.8218  141.9805  160.8741 O.2     1  UNL1       -0.2665
     11 N         140.2198  141.1349  163.2983 N.ar    1  UNL1       -0.2613
     12 C         139.3966  142.2707  163.8296 C.ar    1  UNL1        0.0680
     13 C         137.9013  142.1586  163.8700 C.ar    1  UNL1        0.0176
     14 C         137.0781  143.2943  164.4014 C.ar    1  UNL1        0.0015
     15 C         137.7502  144.5422  164.8923 C.ar    1  UNL1        0.0001
     16 C         139.2454  144.6543  164.8520 C.ar    1  UNL1        0.0015
     17 C         140.0686  143.5186  164.3206 C.ar    1  UNL1        0.0176
     18 C         140.8576  140.6996  158.8650 C.1     1  UNL1       -0.0642
     19 C         140.2471  141.6903  157.9186 C.1     1  UNL1       -0.0864
     20 C         139.6365  142.6810  156.9722 C.3     1  UNL1        0.0769
     21 C         139.6111  144.1385  157.3256 C.3     1  UNL1        0.0235
     22 C         140.8200  144.7834  157.9361 C.3     1  UNL1        0.0863
     23 C         140.9009  144.9691  159.4224 C.2     1  UNL1        0.2257
     24 O         139.9094  145.8498  160.1234 O.2     1  UNL1       -0.2749
     25 N         141.9734  144.2740  160.2078 N.am    1  UNL1       -0.2795
     26 C         143.0290  143.3674  159.6478 C.3     1  UNL1        0.0935
     27 C         143.8866  142.8966  160.7849 C.3     1  UNL1        0.0233
     28 C         143.3609  143.5123  162.0477 C.3     1  UNL1        0.0233
     29 C         142.1785  144.3635  161.6910 C.3     1  UNL1        0.0935
     30 C         140.6178  140.2893  165.7225 C.3     1  UNL1        0.1282
     31 C         138.7204  138.5149  165.6886 C.3     1  UNL1        0.0022
     32 C         139.4351  139.6395  166.3774 C.3     1  UNL1        0.0273
     33 N         141.5878  141.0843  166.5453 N.pl3   1  UNL1       -0.3129
     34 H         142.1864  141.7334  166.1098 H       1  UNL1        0.1486
     35 C         141.6460  140.8902  168.0315 C.ar    1  UNL1        0.1440
     36 N         140.8991  141.8219  168.9392 N.ar    1  UNL1       -0.1985
     37 C         140.9572  141.6279  170.4256 C.ar    1  UNL1        0.2160
     38 N         140.2103  142.5595  171.3333 N.pl3   1  UNL1       -0.3274
     39 N         141.7623  140.5022  171.0040 N.ar    1  UNL1       -0.1987
     40 C         142.5092  139.5705  170.0962 C.ar    1  UNL1        0.1407
     41 N         143.3143  138.4447  170.6746 N.pl3   1  UNL1       -0.3419
     42 C         142.4511  139.7645  168.6099 C.ar    1  UNL1        0.1308
     43 H         139.6819  143.2984  170.9536 H       1  UNL1        0.1452
     44 H         140.2485  142.4322  172.3088 H       1  UNL1        0.1452
     45 H         143.3525  138.3174  171.6501 H       1  UNL1        0.1437
     46 H         143.8045  137.8333  170.0788 H       1  UNL1        0.1437
     47 C         143.1980  138.8328  167.7022 C.1     1  UNL1        0.1061
     48 N         143.9449  137.9011  166.7944 N.1     1  UNL1       -0.1906
@<TRIPOS>BOND
     1    31    32    1
     2    30    32    1
     3    30    33    1
     4    33    35    1
     5    35    36   ar
     6    36    37   ar
     7    37    38    1
     8    37    39   ar
     9    39    40   ar
    10    40    41    1
    11    40    42   ar
    12    42    47    1
    13    47    48    3
    14    30     1    1
    15     1     2   ar
    16     2     3   ar
    17     3     4   ar
    18     4     5   ar
    19     5     6   ar
    20     6     7   ar
    21     7    18    1
    22    18    19    3
    23    19    20    1
    24    20    21    1
    25    21    22    1
    26    22    23    1
    27    23    24    2
    28    23    25   am
    29    25    26    1
    30    26    27    1
    31    27    28    1
    32    28    29    1
    33     7     8   ar
    34     8     9   ar
    35     9    10    2
    36     9    11   ar
    37    11    12    1
    38    12    13   ar
    39    13    14   ar
    40    14    15   ar
    41    15    16   ar
    42    16    17   ar
    43    42    35   ar
    44    11     1   ar
    45    17    12   ar
    46     8     3   ar
    47    29    25    1
    48    33    34    1
    49    38    43    1
    50    38    44    1
    51    41    45    1
    52    41    46    1
@<TRIPOS>MOLECULE
*****
 48 52 0 0 0
SMALL
GASTEIGER

@<TRIPOS>ATOM
      1 C         141.0956  142.5108  164.4483 C.ar    1  UNL1        0.1443
      2 N         140.9875  143.9414  164.0107 N.ar    1  UNL1       -0.2302
      3 C         140.6413  144.2663  162.5877 C.ar    1  UNL1        0.0878
      4 C         140.5332  145.6969  162.1501 C.ar    1  UNL1        0.0193
      5 C         140.1870  146.0218  160.7272 C.ar    1  UNL1        0.0022
      6 C         139.9489  144.9160  159.7420 C.ar    1  UNL1        0.0085
      7 C         140.0570  143.4854  160.1797 C.ar    1  UNL1        0.0477
      8 C         140.4032  143.1605  161.6026 C.ar    1  UNL1        0.0818
      9 C         140.5113  141.7298  162.0403 C.ar    1  UNL1        0.2676
     10 O         140.2733  140.6241  161.0551 O.2     1  UNL1       -0.2665
     11 N         140.8575  141.4050  163.4632 N.ar    1  UNL1       -0.2613
     12 C         140.9656  139.9743  163.9009 C.ar    1  UNL1        0.0680
     13 C         139.7580  139.2583  164.4290 C.ar    1  UNL1        0.0176
     14 C         139.8661  137.8277  164.8667 C.ar    1  UNL1        0.0015
     15 C         141.1818  137.1131  164.7763 C.ar    1  UNL1        0.0001
     16 C         142.3894  137.8291  164.2482 C.ar    1  UNL1        0.0015
     17 C         142.2814  139.2597  163.8105 C.ar    1  UNL1        0.0176
     18 C         139.8190  142.3796  159.1945 C.1     1  UNL1       -0.0642
     19 C         139.5809  141.2738  158.2093 C.1     1  UNL1       -0.0864
     20 C         139.3428  140.1681  157.2241 C.3     1  UNL1        0.0769
     21 C         140.5049  139.4203  156.6407 C.3     1  UNL1        0.0235
     22 C         141.9065  139.8027  157.0139 C.3     1  UNL1        0.0863
     23 C         142.5237  139.2583  158.2680 C.2     1  UNL1        0.2257
     24 O         142.5298  137.7797  158.5202 O.2     1  UNL1       -0.2749
     25 N         143.1349  140.1926  159.2698 N.am    1  UNL1       -0.2795
     26 C         143.2030  141.6867  159.1551 C.3     1  UNL1        0.0935
     27 C         143.8955  142.2143  160.3766 C.3     1  UNL1        0.0233
     28 C         144.2554  141.0463  161.2462 C.3     1  UNL1        0.0233
     29 C         143.7854  139.7969  160.5622 C.3     1  UNL1        0.0935
     30 C         141.4418  142.1858  165.8713 C.3     1  UNL1        0.1282
     31 C         143.9881  142.2599  165.3611 C.3     1  UNL1        0.0022
     32 C         142.8508  141.8237  166.2364 C.3     1  UNL1        0.0273
     33 N         140.3789  142.2231  166.9290 N.pl3   1  UNL1       -0.3129
     34 H         139.4399  142.3800  166.6780 H       1  UNL1        0.1486
     35 C         140.7465  142.0214  168.3692 C.ar    1  UNL1        0.1440
     36 N         141.7081  142.9597  169.0362 N.ar    1  UNL1       -0.1985
     37 C         142.0758  142.7580  170.4764 C.ar    1  UNL1        0.2160
     38 N         143.0374  143.6962  171.1435 N.pl3   1  UNL1       -0.3274
     39 N         141.4819  141.6180  171.2496 N.ar    1  UNL1       -0.1987
     40 C         140.5202  140.6797  170.5824 C.ar    1  UNL1        0.1407
     41 N         139.9263  139.5398  171.3556 N.pl3   1  UNL1       -0.3419
     42 C         140.1526  140.8814  169.1423 C.ar    1  UNL1        0.1308
     43 H         143.4272  144.4444  170.6360 H       1  UNL1        0.1452
     44 H         143.2787  143.5638  172.0887 H       1  UNL1        0.1452
     45 H         140.1676  139.4074  172.3008 H       1  UNL1        0.1437
     46 H         139.2952  138.9240  170.9178 H       1  UNL1        0.1437
     47 C         139.1910  139.9432  168.4753 C.1     1  UNL1        0.1061
     48 N         138.2294  139.0049  167.8082 N.1     1  UNL1       -0.1906
@<TRIPOS>BOND
     1    31    32    1
     2    30    32    1
     3    30    33    1
     4    33    35    1
     5    35    36   ar
     6    36    37   ar
     7    37    38    1
     8    37    39   ar
     9    39    40   ar
    10    40    41    1
    11    40    42   ar
    12    42    47    1
    13    47    48    3
    14    30     1    1
    15     1     2   ar
    16     2     3   ar
    17     3     4   ar
    18     4     5   ar
    19     5     6   ar
    20     6     7   ar
    21     7    18    1
    22    18    19    3
    23    19    20    1
    24    20    21    1
    25    21    22    1
    26    22    23    1
    27    23    24    2
    28    23    25   am
    29    25    26    1
    30    26    27    1
    31    27    28    1
    32    28    29    1
    33     7     8   ar
    34     8     9   ar
    35     9    10    2
    36     9    11   ar
    37    11    12    1
    38    12    13   ar
    39    13    14   ar
    40    14    15   ar
    41    15    16   ar
    42    16    17   ar
    43    42    35   ar
    44    11     1   ar
    45    17    12   ar
    46     8     3   ar
    47    29    25    1
    48    33    34    1
    49    38    43    1
    50    38    44    1
    51    41    45    1
    52    41    46    1
@<TRIPOS>MOLECULE
*****
 48 52 0 0 0
SMALL
GASTEIGER

@<TRIPOS>ATOM
      1 C         140.8965  140.8644  164.6117 C.ar    1  UNL1        0.1443
      2 N         140.0247  139.6501  164.4876 N.ar    1  UNL1       -0.2302
      3 C         139.3749  139.3242  163.1754 C.ar    1  UNL1        0.0878
      4 C         138.5032  138.1099  163.0513 C.ar    1  UNL1        0.0193
      5 C         137.8534  137.7841  161.7393 C.ar    1  UNL1        0.0022
      6 C         138.0754  138.6725  160.5513 C.ar    1  UNL1        0.0085
      7 C         138.9472  139.8868  160.6754 C.ar    1  UNL1        0.0477
      8 C         139.5969  140.2127  161.9875 C.ar    1  UNL1        0.0818
      9 C         140.4687  141.4270  162.1116 C.ar    1  UNL1        0.2676
     10 O         140.6908  142.3155  160.9236 O.2     1  UNL1       -0.2665
     11 N         141.1185  141.7529  163.4237 N.ar    1  UNL1       -0.2613
     12 C         141.9903  142.9672  163.5478 C.ar    1  UNL1        0.0680
     13 C         141.3744  144.3084  163.8162 C.ar    1  UNL1        0.0176
     14 C         142.2461  145.5227  163.9403 C.ar    1  UNL1        0.0015
     15 C         143.7337  145.3959  163.7962 C.ar    1  UNL1        0.0001
     16 C         144.3496  144.0547  163.5278 C.ar    1  UNL1        0.0015
     17 C         143.4779  142.8404  163.4037 C.ar    1  UNL1        0.0176
     18 C         139.1692  140.7753  159.4874 C.1     1  UNL1       -0.0642
     19 C         139.3912  141.6638  158.2994 C.1     1  UNL1       -0.0864
     20 C         139.6132  142.5523  157.1114 C.3     1  UNL1        0.0769
     21 C         140.9660  143.1519  156.8657 C.3     1  UNL1        0.0235
     22 C         142.1967  142.3040  156.9936 C.3     1  UNL1        0.0863
     23 C         142.9618  142.2823  158.2837 C.2     1  UNL1        0.2257
     24 O         143.5708  143.5456  158.8158 O.2     1  UNL1       -0.2749
     25 N         143.1179  140.9973  159.0416 N.am    1  UNL1       -0.2795
     26 C         142.5678  139.6621  158.6360 C.3     1  UNL1        0.0935
     27 C         142.9614  138.6615  159.6819 C.3     1  UNL1        0.0233
     28 C         143.7547  139.3783  160.7339 C.3     1  UNL1        0.0233
     29 C         143.8514  140.8220  160.3382 C.3     1  UNL1        0.0935
     30 C         141.5463  141.1903  165.9238 C.3     1  UNL1        0.1282
     31 C         142.9355  139.1700  166.7830 C.3     1  UNL1        0.0022
     32 C         142.8704  140.5805  166.2769 C.3     1  UNL1        0.0273
     33 N         140.8718  142.1260  166.8828 N.pl3   1  UNL1       -0.3129
     34 H         140.2760  142.8327  166.5441 H       1  UNL1        0.1486
     35 C         141.1052  141.9848  168.3578 C.ar    1  UNL1        0.1440
     36 N         142.0537  142.9113  169.0591 N.ar    1  UNL1       -0.1985
     37 C         142.2871  142.7701  170.5341 C.ar    1  UNL1        0.2160
     38 N         143.2356  143.6966  171.2354 N.pl3   1  UNL1       -0.3274
     39 N         141.5719  141.7025  171.3078 N.ar    1  UNL1       -0.1987
     40 C         140.6233  140.7759  170.6064 C.ar    1  UNL1        0.1407
     41 N         139.9081  139.7082  171.3801 N.pl3   1  UNL1       -0.3419
     42 C         140.3900  140.9171  169.1315 C.ar    1  UNL1        0.1308
     43 H         143.7050  144.3974  170.7276 H       1  UNL1        0.1452
     44 H         143.3887  143.6040  172.2035 H       1  UNL1        0.1452
     45 H         140.0613  139.6156  172.3482 H       1  UNL1        0.1437
     46 H         139.2856  139.1001  170.9198 H       1  UNL1        0.1437
     47 C         139.4415  139.9906  168.4302 C.1     1  UNL1        0.1061
     48 N         138.4929  139.0640  167.7289 N.1     1  UNL1       -0.1906
@<TRIPOS>BOND
     1    31    32    1
     2    30    32    1
     3    30    33    1
     4    33    35    1
     5    35    36   ar
     6    36    37   ar
     7    37    38    1
     8    37    39   ar
     9    39    40   ar
    10    40    41    1
    11    40    42   ar
    12    42    47    1
    13    47    48    3
    14    30     1    1
    15     1     2   ar
    16     2     3   ar
    17     3     4   ar
    18     4     5   ar
    19     5     6   ar
    20     6     7   ar
    21     7    18    1
    22    18    19    3
    23    19    20    1
    24    20    21    1
    25    21    22    1
    26    22    23    1
    27    23    24    2
    28    23    25   am
    29    25    26    1
    30    26    27    1
    31    27    28    1
    32    28    29    1
    33     7     8   ar
    34     8     9   ar
    35     9    10    2
    36     9    11   ar
    37    11    12    1
    38    12    13   ar
    39    13    14   ar
    40    14    15   ar
    41    15    16   ar
    42    16    17   ar
    43    42    35   ar
    44    11     1   ar
    45    17    12   ar
    46     8     3   ar
    47    29    25    1
    48    33    34    1
    49    38    43    1
    50    38    44    1
    51    41    45    1
    52    41    46    1
@<TRIPOS>MOLECULE
*****
 48 52 0 0 0
SMALL
GASTEIGER

@<TRIPOS>ATOM
      1 C         139.6895  141.5347  161.2776 C.ar    1  UNL1        0.1443
      2 N         138.6603  142.5368  161.7090 N.ar    1  UNL1       -0.2302
      3 C         138.7397  143.1533  163.0742 C.ar    1  UNL1        0.0878
      4 C         137.7105  144.1555  163.5057 C.ar    1  UNL1        0.0193
      5 C         137.7900  144.7719  164.8708 C.ar    1  UNL1        0.0022
      6 C         138.8988  144.3861  165.8045 C.ar    1  UNL1        0.0085
      7 C         139.9281  143.3839  165.3731 C.ar    1  UNL1        0.0477
      8 C         139.8485  142.7675  164.0079 C.ar    1  UNL1        0.0818
      9 C         140.8778  141.7653  163.5764 C.ar    1  UNL1        0.2676
     10 O         141.9866  141.3795  164.5101 O.2     1  UNL1       -0.2665
     11 N         140.7983  141.1489  162.2112 N.ar    1  UNL1       -0.2613
     12 C         141.8276  140.1466  161.7797 C.ar    1  UNL1        0.0680
     13 C         143.1913  140.6066  161.3571 C.ar    1  UNL1        0.0176
     14 C         144.2206  139.6045  160.9256 C.ar    1  UNL1        0.0015
     15 C         143.8861  138.1423  160.9167 C.ar    1  UNL1        0.0001
     16 C         142.5224  137.6823  161.3393 C.ar    1  UNL1        0.0015
     17 C         141.4931  138.6845  161.7708 C.ar    1  UNL1        0.0176
     18 C         141.0368  142.9981  166.3067 C.1     1  UNL1       -0.0642
     19 C         142.1456  142.6124  167.2404 C.1     1  UNL1       -0.0864
     20 C         143.2544  142.2266  168.1741 C.3     1  UNL1        0.0769
     21 C         143.0002  141.2363  169.2717 C.3     1  UNL1        0.0235
     22 C         142.0948  140.0650  169.0303 C.3     1  UNL1        0.0863
     23 C         142.1447  139.3360  167.7202 C.2     1  UNL1        0.2257
     24 O         143.4246  138.7008  167.2637 O.2     1  UNL1       -0.2749
     25 N         140.9148  139.2424  166.8667 N.am    1  UNL1       -0.2795
     26 C         139.5707  139.8246  167.1902 C.3     1  UNL1        0.0935
     27 C         138.6382  139.4921  166.0633 C.3     1  UNL1        0.0233
     28 C         139.4059  138.7045  165.0434 C.3     1  UNL1        0.0233
     29 C         140.8129  138.5502  165.5399 C.3     1  UNL1        0.0935
     30 C         139.6100  140.9182  159.9123 C.3     1  UNL1        0.1282
     31 C         137.9540  139.1149  160.7814 C.3     1  UNL1        0.0022
     32 C         138.8787  139.6235  159.7155 C.3     1  UNL1        0.0273
     33 N         140.2619  141.5965  158.7440 N.pl3   1  UNL1       -0.3129
     34 H         139.8054  142.3409  158.2895 H       1  UNL1        0.1486
     35 C         141.6094  141.1406  158.2683 C.ar    1  UNL1        0.1440
     36 N         141.8314  139.7005  157.9125 N.ar    1  UNL1       -0.1985
     37 C         143.1789  139.2445  157.4368 C.ar    1  UNL1        0.2160
     38 N         143.4009  137.8043  157.0810 N.pl3   1  UNL1       -0.3274
     39 N         144.3045  140.2288  157.3168 N.ar    1  UNL1       -0.1987
     40 C         144.0824  141.6690  157.6726 C.ar    1  UNL1        0.1407
     41 N         145.2080  142.6533  157.5526 N.pl3   1  UNL1       -0.3419
     42 C         142.7349  142.1249  158.1483 C.ar    1  UNL1        0.1308
     43 H         142.6622  137.1583  157.1598 H       1  UNL1        0.1452
     44 H         144.2853  137.5051  156.7688 H       1  UNL1        0.1452
     45 H         146.0924  142.3541  157.2403 H       1  UNL1        0.1437
     46 H         145.0623  143.5985  157.7861 H       1  UNL1        0.1437
     47 C         142.5130  143.5651  158.5041 C.1     1  UNL1        0.1061
     48 N         142.2910  145.0053  158.8598 N.1     1  UNL1       -0.1906
@<TRIPOS>BOND
     1    31    32    1
     2    30    32    1
     3    30    33    1
     4    33    35    1
     5    35    36   ar
     6    36    37   ar
     7    37    38    1
     8    37    39   ar
     9    39    40   ar
    10    40    41    1
    11    40    42   ar
    12    42    47    1
    13    47    48    3
    14    30     1    1
    15     1     2   ar
    16     2     3   ar
    17     3     4   ar
    18     4     5   ar
    19     5     6   ar
    20     6     7   ar
    21     7    18    1
    22    18    19    3
    23    19    20    1
    24    20    21    1
    25    21    22    1
    26    22    23    1
    27    23    24    2
    28    23    25   am
    29    25    26    1
    30    26    27    1
    31    27    28    1
    32    28    29    1
    33     7     8   ar
    34     8     9   ar
    35     9    10    2
    36     9    11   ar
    37    11    12    1
    38    12    13   ar
    39    13    14   ar
    40    14    15   ar
    41    15    16   ar
    42    16    17   ar
    43    42    35   ar
    44    11     1   ar
    45    17    12   ar
    46     8     3   ar
    47    29    25    1
    48    33    34    1
    49    38    43    1
    50    38    44    1
    51    41    45    1
    52    41    46    1
@<TRIPOS>MOLECULE
*****
 48 52 0 0 0
SMALL
GASTEIGER

@<TRIPOS>ATOM
      1 C         142.9604  141.3714  160.3961 C.ar    1  UNL1        0.1443
      2 N         144.1340  141.2269  161.3190 N.ar    1  UNL1       -0.2302
      3 C         143.9979  140.4378  162.5875 C.ar    1  UNL1        0.0878
      4 C         145.1715  140.2933  163.5103 C.ar    1  UNL1        0.0193
      5 C         145.0354  139.5043  164.7787 C.ar    1  UNL1        0.0022
      6 C         143.7258  138.8597  165.1242 C.ar    1  UNL1        0.0085
      7 C         142.5522  139.0042  164.2013 C.ar    1  UNL1        0.0477
      8 C         142.6883  139.7933  162.9329 C.ar    1  UNL1        0.0818
      9 C         141.5147  139.9378  162.0099 C.ar    1  UNL1        0.2676
     10 O         140.2050  139.2932  162.3554 O.2     1  UNL1       -0.2665
     11 N         141.6507  140.7269  160.7416 N.ar    1  UNL1       -0.2613
     12 C         140.4771  140.8714  159.8186 C.ar    1  UNL1        0.0680
     13 C         140.2780  139.8925  158.6996 C.ar    1  UNL1        0.0176
     14 C         139.1045  140.0370  157.7767 C.ar    1  UNL1        0.0015
     15 C         138.1301  141.1604  157.9727 C.ar    1  UNL1        0.0001
     16 C         138.3292  142.1393  159.0916 C.ar    1  UNL1        0.0015
     17 C         139.5027  141.9948  160.0146 C.ar    1  UNL1        0.0176
     18 C         141.2426  138.3596  164.5468 C.1     1  UNL1       -0.0642
     19 C         139.9329  137.7151  164.8922 C.1     1  UNL1       -0.0864
     20 C         138.6233  137.0705  165.2377 C.3     1  UNL1        0.0769
     21 C         137.9665  137.3649  166.5538 C.3     1  UNL1        0.0235
     22 C         137.6629  138.7821  166.9401 C.3     1  UNL1        0.0863
     23 C         138.7675  139.6874  167.3991 C.2     1  UNL1        0.2257
     24 O         139.3610  139.5132  168.7655 O.2     1  UNL1       -0.2749
     25 N         139.2784  140.7669  166.4915 N.am    1  UNL1       -0.2795
     26 C         138.7855  141.0599  165.1054 C.3     1  UNL1        0.0935
     27 C         139.5744  142.2170  164.5679 C.3     1  UNL1        0.0233
     28 C         140.5548  142.6391  165.6218 C.3     1  UNL1        0.0233
     29 C         140.3718  141.7429  166.8106 C.3     1  UNL1        0.0935
     30 C         143.0964  142.1605  159.1276 C.3     1  UNL1        0.1282
     31 C         143.7967  140.0106  157.8483 C.3     1  UNL1        0.0022
     32 C         143.4136  141.4608  157.8394 C.3     1  UNL1        0.0273
     33 N         142.9153  143.6494  159.1475 N.pl3   1  UNL1       -0.3129
     34 H         143.2180  144.1924  158.3841 H       1  UNL1        0.1486
     35 C         142.2728  144.3110  160.3305 C.ar    1  UNL1        0.1440
     36 N         142.8990  144.1915  161.6883 N.ar    1  UNL1       -0.1985
     37 C         142.2565  144.8531  162.8714 C.ar    1  UNL1        0.2160
     38 N         142.8827  144.7336  164.2292 N.pl3   1  UNL1       -0.3274
     39 N         140.9880  145.6343  162.6966 N.ar    1  UNL1       -0.1987
     40 C         140.3618  145.7538  161.3387 C.ar    1  UNL1        0.1407
     41 N         139.0933  146.5350  161.1639 N.pl3   1  UNL1       -0.3419
     42 C         141.0043  145.0922  160.1557 C.ar    1  UNL1        0.1308
     43 H         143.7153  144.2209  164.3439 H       1  UNL1        0.1452
     44 H         142.4610  145.1678  165.0056 H       1  UNL1        0.1452
     45 H         138.6717  146.9692  161.9404 H       1  UNL1        0.1437
     46 H         138.6823  146.6134  160.2727 H       1  UNL1        0.1437
     47 C         140.3781  145.2117  158.7980 C.1     1  UNL1        0.1061
     48 N         139.7519  145.3313  157.4401 N.1     1  UNL1       -0.1906
@<TRIPOS>BOND
     1    31    32    1
     2    30    32    1
     3    30    33    1
     4    33    35    1
     5    35    36   ar
     6    36    37   ar
     7    37    38    1
     8    37    39   ar
     9    39    40   ar
    10    40    41    1
    11    40    42   ar
    12    42    47    1
    13    47    48    3
    14    30     1    1
    15     1     2   ar
    16     2     3   ar
    17     3     4   ar
    18     4     5   ar
    19     5     6   ar
    20     6     7   ar
    21     7    18    1
    22    18    19    3
    23    19    20    1
    24    20    21    1
    25    21    22    1
    26    22    23    1
    27    23    24    2
    28    23    25   am
    29    25    26    1
    30    26    27    1
    31    27    28    1
    32    28    29    1
    33     7     8   ar
    34     8     9   ar
    35     9    10    2
    36     9    11   ar
    37    11    12    1
    38    12    13   ar
    39    13    14   ar
    40    14    15   ar
    41    15    16   ar
    42    16    17   ar
    43    42    35   ar
    44    11     1   ar
    45    17    12   ar
    46     8     3   ar
    47    29    25    1
    48    33    34    1
    49    38    43    1
    50    38    44    1
    51    41    45    1
    52    41    46    1
@<TRIPOS>MOLECULE
*****
 48 52 0 0 0
SMALL
GASTEIGER

@<TRIPOS>ATOM
      1 C         141.0100  142.2441  164.4215 C.ar    1  UNL1        0.1443
      2 N         140.9815  143.6884  164.0175 N.ar    1  UNL1       -0.2302
      3 C         140.6489  144.0654  162.6042 C.ar    1  UNL1        0.0878
      4 C         140.6205  145.5097  162.2002 C.ar    1  UNL1        0.0193
      5 C         140.2879  145.8867  160.7870 C.ar    1  UNL1        0.0022
      6 C         139.9839  144.8194  159.7778 C.ar    1  UNL1        0.0085
      7 C         140.0124  143.3751  160.1818 C.ar    1  UNL1        0.0477
      8 C         140.3449  142.9982  161.5950 C.ar    1  UNL1        0.0818
      9 C         140.3734  141.5538  161.9991 C.ar    1  UNL1        0.2676
     10 O         140.0693  140.4866  160.9899 O.2     1  UNL1       -0.2665
     11 N         140.7059  141.1769  163.4123 N.ar    1  UNL1       -0.2613
     12 C         140.7344  139.7325  163.8164 C.ar    1  UNL1        0.0680
     13 C         139.5637  139.1320  164.5366 C.ar    1  UNL1        0.0176
     14 C         139.5921  137.6878  164.9407 C.ar    1  UNL1        0.0015
     15 C         140.7913  136.8441  164.6246 C.ar    1  UNL1        0.0001
     16 C         141.9621  137.4446  163.9044 C.ar    1  UNL1        0.0015
     17 C         141.9337  138.8888  163.5003 C.ar    1  UNL1        0.0176
     18 C         139.7083  142.3079  159.1726 C.1     1  UNL1       -0.0642
     19 C         139.4043  141.2406  158.1634 C.1     1  UNL1       -0.0864
     20 C         139.1002  140.1733  157.1542 C.3     1  UNL1        0.0769
     21 C         139.8404  138.8694  157.1954 C.3     1  UNL1        0.0235
     22 C         141.2454  138.7877  156.6765 C.3     1  UNL1        0.0863
     23 C         142.1564  137.6930  157.1475 C.2     1  UNL1        0.2257
     24 O         143.1609  137.9660  158.2276 O.2     1  UNL1       -0.2749
     25 N         142.0630  136.3255  156.5385 N.am    1  UNL1       -0.2795
     26 C         141.1134  135.9054  155.4560 C.3     1  UNL1        0.0935
     27 C         141.3663  134.4581  155.1534 C.3     1  UNL1        0.0233
     28 C         142.4722  133.9837  156.0489 C.3     1  UNL1        0.0233
     29 C         142.9028  135.1378  156.9049 C.3     1  UNL1        0.0935
     30 C         141.3425  141.8671  165.8348 C.3     1  UNL1        0.1282
     31 C         142.7888  139.9085  166.7414 C.3     1  UNL1        0.0022
     32 C         142.6872  141.2874  166.1598 C.3     1  UNL1        0.0273
     33 N         140.3303  142.0697  166.9231 N.pl3   1  UNL1       -0.3129
     34 H         139.4056  142.3190  166.6950 H       1  UNL1        0.1486
     35 C         140.7270  141.8926  168.3588 C.ar    1  UNL1        0.1440
     36 N         141.7363  142.8139  168.9771 N.ar    1  UNL1       -0.1985
     37 C         142.1330  142.6368  170.4129 C.ar    1  UNL1        0.2160
     38 N         143.1424  143.5581  171.0312 N.pl3   1  UNL1       -0.3274
     39 N         141.5203  141.5384  171.2302 N.ar    1  UNL1       -0.1987
     40 C         140.5109  140.6171  170.6118 C.ar    1  UNL1        0.1407
     41 N         139.8982  139.5187  171.4292 N.pl3   1  UNL1       -0.3419
     42 C         140.1143  140.7942  169.1761 C.ar    1  UNL1        0.1308
     43 H         143.5445  144.2791  170.4947 H       1  UNL1        0.1452
     44 H         143.4027  143.4419  171.9735 H       1  UNL1        0.1452
     45 H         140.1586  139.4025  172.3715 H       1  UNL1        0.1437
     46 H         139.2357  138.9140  171.0234 H       1  UNL1        0.1437
     47 C         139.1049  139.8729  168.5578 C.1     1  UNL1        0.1061
     48 N         138.0955  138.9515  167.9395 N.1     1  UNL1       -0.1906
@<TRIPOS>BOND
     1    31    32    1
     2    30    32    1
     3    30    33    1
     4    33    35    1
     5    35    36   ar
     6    36    37   ar
     7    37    38    1
     8    37    39   ar
     9    39    40   ar
    10    40    41    1
    11    40    42   ar
    12    42    47    1
    13    47    48    3
    14    30     1    1
    15     1     2   ar
    16     2     3   ar
    17     3     4   ar
    18     4     5   ar
    19     5     6   ar
    20     6     7   ar
    21     7    18    1
    22    18    19    3
    23    19    20    1
    24    20    21    1
    25    21    22    1
    26    22    23    1
    27    23    24    2
    28    23    25   am
    29    25    26    1
    30    26    27    1
    31    27    28    1
    32    28    29    1
    33     7     8   ar
    34     8     9   ar
    35     9    10    2
    36     9    11   ar
    37    11    12    1
    38    12    13   ar
    39    13    14   ar
    40    14    15   ar
    41    15    16   ar
    42    16    17   ar
    43    42    35   ar
    44    11     1   ar
    45    17    12   ar
    46     8     3   ar
    47    29    25    1
    48    33    34    1
    49    38    43    1
    50    38    44    1
    51    41    45    1
    52    41    46    1
@<TRIPOS>MOLECULE
*****
 48 52 0 0 0
SMALL
GASTEIGER

@<TRIPOS>ATOM
      1 C         138.7217  142.1959  159.9162 C.ar    1  UNL1        0.1443
      2 N         137.9799  143.0338  160.9151 N.ar    1  UNL1       -0.2302
      3 C         138.4070  143.0404  162.3530 C.ar    1  UNL1        0.0878
      4 C         137.6653  143.8782  163.3519 C.ar    1  UNL1        0.0193
      5 C         138.0924  143.8848  164.7897 C.ar    1  UNL1        0.0022
      6 C         139.2613  143.0535  165.2287 C.ar    1  UNL1        0.0085
      7 C         140.0030  142.2156  164.2299 C.ar    1  UNL1        0.0477
      8 C         139.5759  142.2091  162.7920 C.ar    1  UNL1        0.0818
      9 C         140.3176  141.3712  161.7931 C.ar    1  UNL1        0.2676
     10 O         141.4865  140.5399  162.2321 O.2     1  UNL1       -0.2665
     11 N         139.8905  141.3646  160.3552 N.ar    1  UNL1       -0.2613
     12 C         140.6323  140.5267  159.3563 C.ar    1  UNL1        0.0680
     13 C         141.6436  141.1616  158.4485 C.ar    1  UNL1        0.0176
     14 C         142.3853  140.3238  157.4496 C.ar    1  UNL1        0.0015
     15 C         142.1157  138.8511  157.3584 C.ar    1  UNL1        0.0001
     16 C         141.1044  138.2162  158.2662 C.ar    1  UNL1        0.0015
     17 C         140.3627  139.0540  159.2651 C.ar    1  UNL1        0.0176
     18 C         141.1719  141.3843  164.6689 C.1     1  UNL1       -0.0642
     19 C         142.3408  140.5530  165.1079 C.1     1  UNL1       -0.0864
     20 C         143.5096  139.7217  165.5468 C.3     1  UNL1        0.0769
     21 C         144.6118  139.4073  164.5793 C.3     1  UNL1        0.0235
     22 C         145.4897  140.5068  164.0593 C.3     1  UNL1        0.0863
     23 C         144.9870  141.4218  162.9821 C.2     1  UNL1        0.2257
     24 O         144.9698  140.9615  161.5547 O.2     1  UNL1       -0.2749
     25 N         144.5016  142.7972  163.3326 N.am    1  UNL1       -0.2795
     26 C         144.4591  143.3932  164.7084 C.3     1  UNL1        0.0935
     27 C         143.9047  144.7824  164.5949 C.3     1  UNL1        0.0233
     28 C         143.6046  145.0449  163.1489 C.3     1  UNL1        0.0233
     29 C         143.9735  143.8180  162.3688 C.3     1  UNL1        0.0935
     30 C         138.2945  142.1893  158.4783 C.3     1  UNL1        0.1282
     31 C         138.3021  140.5163  156.4907 C.3     1  UNL1        0.0022
     32 C         137.8050  140.9197  157.8471 C.3     1  UNL1        0.0273
     33 N         138.3571  143.4524  157.6715 N.pl3   1  UNL1       -0.3129
     34 H         137.5476  143.9993  157.5499 H       1  UNL1        0.1486
     35 C         139.6529  143.8821  157.0502 C.ar    1  UNL1        0.1440
     36 N         140.0676  143.3263  155.7202 N.ar    1  UNL1       -0.1985
     37 C         141.3635  143.7560  155.0988 C.ar    1  UNL1        0.2160
     38 N         141.7781  143.2002  153.7687 N.pl3   1  UNL1       -0.3274
     39 N         142.2447  144.7415  155.8075 N.ar    1  UNL1       -0.1987
     40 C         141.8299  145.2973  157.1376 C.ar    1  UNL1        0.1407
     41 N         142.7111  146.2828  157.8464 N.pl3   1  UNL1       -0.3419
     42 C         140.5341  144.8676  157.7590 C.ar    1  UNL1        0.1308
     43 H         141.1998  142.5534  153.3036 H       1  UNL1        0.1452
     44 H         142.6287  143.4822  153.3609 H       1  UNL1        0.1452
     45 H         143.5616  146.5648  157.4386 H       1  UNL1        0.1437
     46 H         142.4389  146.6476  158.7193 H       1  UNL1        0.1437
     47 C         140.1194  145.4234  159.0890 C.1     1  UNL1        0.1061
     48 N         139.7047  145.9792  160.4191 N.1     1  UNL1       -0.1906
@<TRIPOS>BOND
     1    31    32    1
     2    30    32    1
     3    30    33    1
     4    33    35    1
     5    35    36   ar
     6    36    37   ar
     7    37    38    1
     8    37    39   ar
     9    39    40   ar
    10    40    41    1
    11    40    42   ar
    12    42    47    1
    13    47    48    3
    14    30     1    1
    15     1     2   ar
    16     2     3   ar
    17     3     4   ar
    18     4     5   ar
    19     5     6   ar
    20     6     7   ar
    21     7    18    1
    22    18    19    3
    23    19    20    1
    24    20    21    1
    25    21    22    1
    26    22    23    1
    27    23    24    2
    28    23    25   am
    29    25    26    1
    30    26    27    1
    31    27    28    1
    32    28    29    1
    33     7     8   ar
    34     8     9   ar
    35     9    10    2
    36     9    11   ar
    37    11    12    1
    38    12    13   ar
    39    13    14   ar
    40    14    15   ar
    41    15    16   ar
    42    16    17   ar
    43    42    35   ar
    44    11     1   ar
    45    17    12   ar
    46     8     3   ar
    47    29    25    1
    48    33    34    1
    49    38    43    1
    50    38    44    1
    51    41    45    1
    52    41    46    1
@<TRIPOS>MOLECULE
*****
 48 52 0 0 0
SMALL
GASTEIGER

@<TRIPOS>ATOM
      1 C         141.8007  140.7776  164.4141 C.ar    1  UNL1        0.1443
      2 N         142.8136  139.7321  164.0524 N.ar    1  UNL1       -0.2302
      3 C         142.8648  139.1891  162.6550 C.ar    1  UNL1        0.0878
      4 C         143.8777  138.1436  162.2932 C.ar    1  UNL1        0.0193
      5 C         143.9288  137.6007  160.8959 C.ar    1  UNL1        0.0022
      6 C         142.9671  138.1033  159.8603 C.ar    1  UNL1        0.0085
      7 C         141.9542  139.1488  160.2220 C.ar    1  UNL1        0.0477
      8 C         141.9030  139.6917  161.6194 C.ar    1  UNL1        0.0818
      9 C         140.8901  140.7373  161.9812 C.ar    1  UNL1        0.2676
     10 O         139.9284  141.2399  160.9456 O.2     1  UNL1       -0.2665
     11 N         140.8390  141.2802  163.3785 N.ar    1  UNL1       -0.2613
     12 C         139.8260  142.3258  163.7403 C.ar    1  UNL1        0.0680
     13 C         138.4441  141.9184  164.1579 C.ar    1  UNL1        0.0176
     14 C         137.4312  142.9639  164.5196 C.ar    1  UNL1        0.0015
     15 C         137.8002  144.4167  164.4639 C.ar    1  UNL1        0.0001
     16 C         139.1822  144.8240  164.0464 C.ar    1  UNL1        0.0015
     17 C         140.1951  143.7785  163.6846 C.ar    1  UNL1        0.0176
     18 C         140.9925  139.6514  159.1864 C.1     1  UNL1       -0.0642
     19 C         140.0307  140.1540  158.1509 C.1     1  UNL1       -0.0864
     20 C         139.0690  140.6566  157.1153 C.3     1  UNL1        0.0769
     21 C         137.8138  141.3614  157.5367 C.3     1  UNL1        0.0235
     22 C         137.6266  142.8151  157.2176 C.3     1  UNL1        0.0863
     23 C         138.7197  143.5790  156.5307 C.2     1  UNL1        0.2257
     24 O         138.7310  143.6905  155.0349 O.2     1  UNL1       -0.2749
     25 N         139.8014  144.2313  157.3397 N.am    1  UNL1       -0.2795
     26 C         139.9213  144.2059  158.8346 C.3     1  UNL1        0.0935
     27 C         141.1471  144.9824  159.2146 C.3     1  UNL1        0.0233
     28 C         141.7847  145.4878  157.9545 C.3     1  UNL1        0.0233
     29 C         140.9530  145.0236  156.7957 C.3     1  UNL1        0.0935
     30 C         141.7495  141.3205  165.8115 C.3     1  UNL1        0.1282
     31 C         143.5729  143.0689  165.2049 C.3     1  UNL1        0.0022
     32 C         142.6803  142.4227  166.2225 C.3     1  UNL1        0.0273
     33 N         140.7675  140.7613  166.7979 N.pl3   1  UNL1       -0.3129
     34 H         139.9623  140.2929  166.4793 H       1  UNL1        0.1486
     35 C         141.0123  140.9157  168.2697 C.ar    1  UNL1        0.1440
     36 N         140.1864  141.8784  169.0704 N.ar    1  UNL1       -0.1985
     37 C         140.4312  142.0328  170.5422 C.ar    1  UNL1        0.2160
     38 N         139.6053  142.9955  171.3429 N.pl3   1  UNL1       -0.3274
     39 N         141.5019  141.2246  171.2133 N.ar    1  UNL1       -0.1987
     40 C         142.3278  140.2619  170.4126 C.ar    1  UNL1        0.1407
     41 N         143.3984  139.4536  171.0837 N.pl3   1  UNL1       -0.3419
     42 C         142.0830  140.1074  168.9408 C.ar    1  UNL1        0.1308
     43 H         138.9026  143.5260  170.9024 H       1  UNL1        0.1452
     44 H         139.7660  143.0969  172.3089 H       1  UNL1        0.1452
     45 H         143.5591  139.5550  172.0497 H       1  UNL1        0.1437
     46 H         143.9405  138.8218  170.5581 H       1  UNL1        0.1437
     47 C         142.9089  139.1448  168.1401 C.1     1  UNL1        0.1061
     48 N         143.7348  138.1821  167.3394 N.1     1  UNL1       -0.1906
@<TRIPOS>BOND
     1    31    32    1
     2    30    32    1
     3    30    33    1
     4    33    35    1
     5    35    36   ar
     6    36    37   ar
     7    37    38    1
     8    37    39   ar
     9    39    40   ar
    10    40    41    1
    11    40    42   ar
    12    42    47    1
    13    47    48    3
    14    30     1    1
    15     1     2   ar
    16     2     3   ar
    17     3     4   ar
    18     4     5   ar
    19     5     6   ar
    20     6     7   ar
    21     7    18    1
    22    18    19    3
    23    19    20    1
    24    20    21    1
    25    21    22    1
    26    22    23    1
    27    23    24    2
    28    23    25   am
    29    25    26    1
    30    26    27    1
    31    27    28    1
    32    28    29    1
    33     7     8   ar
    34     8     9   ar
    35     9    10    2
    36     9    11   ar
    37    11    12    1
    38    12    13   ar
    39    13    14   ar
    40    14    15   ar
    41    15    16   ar
    42    16    17   ar
    43    42    35   ar
    44    11     1   ar
    45    17    12   ar
    46     8     3   ar
    47    29    25    1
    48    33    34    1
    49    38    43    1
    50    38    44    1
    51    41    45    1
    52    41    46    1
