@<TRIPOS>MOLECULE
*****
 48 54 0 0 0
SMALL
GASTEIGER

@<TRIPOS>ATOM
      1 C         140.4637  141.4355  162.0575 C.3     1  UNL1        0.0236
      2 C         141.1585  141.9949  163.2634 C.3     1  UNL1        0.0257
      3 C         140.9993  141.3279  164.5975 C.3     1  UNL1        0.0940
      4 N         140.1453  140.1015  164.7257 N.am    1  UNL1       -0.2760
      5 C         139.9861  139.4345  166.0598 C.2     1  UNL1        0.2499
      6 O         139.1321  138.2080  166.1880 O.2     1  UNL1       -0.2699
      7 C         139.4504  139.5420  163.5198 C.3     1  UNL1        0.0940
      8 C         139.6096  140.2090  162.1858 C.3     1  UNL1        0.0257
      9 C         140.0107  141.2836  160.6356 C.ar    1  UNL1       -0.0204
     10 C         138.5883  141.5828  160.2655 C.ar    1  UNL1       -0.0041
     11 C         138.1353  141.4309  158.8436 C.ar    1  UNL1        0.0020
     12 C         139.1050  140.9798  157.7918 C.ar    1  UNL1        0.0296
     13 C         140.5275  140.6805  158.1619 C.ar    1  UNL1        0.1398
     14 F         141.4970  140.2294  157.1101 F       1  UNL1       -0.2042
     15 C         140.9803  140.8325  159.5838 C.ar    1  UNL1        0.0254
     16 C         140.6810  139.9940  167.2657 C.ar    1  UNL1        0.0655
     17 C         139.9392  140.8947  168.2083 C.ar    1  UNL1        0.0253
     18 C         140.6342  141.4541  169.4141 C.ar    1  UNL1        0.1219
     19 C         142.0710  141.1129  169.6773 C.ar    1  UNL1        0.0208
     20 C         142.8128  140.2122  168.7347 C.ar    1  UNL1        0.0129
     21 C         142.1178  139.6528  167.5289 C.ar    1  UNL1        0.0621
     22 CL        142.8596  138.7521  166.5863 Cl      1  UNL1       -0.0821
     23 S         139.8924  142.3548  170.3567 S.O2    1  UNL1        0.0572
     24 N         139.1506  143.2555  171.2994 N.3     1  UNL1       -0.2035
     25 O         141.0361  143.3249  170.3298 O.2     1  UNL1       -0.1532
     26 O         138.7487  141.3846  170.3836 O.2     1  UNL1       -0.1532
     27 H         139.7157  144.0817  171.4957 H       1  UNL1        0.1442
     28 H         138.9633  142.7571  172.1693 H       1  UNL1        0.1442
     29 C         141.1604  142.6091  161.4355 C.3     1  UNL1        0.0215
     30 C         140.7627  144.0048  161.8149 C.3     1  UNL1        0.0723
     31 C         140.7433  144.0483  161.9645 C.3     1  UNL1        0.0893
     32 C         139.2774  143.8014  161.7630 C.3     1  UNL1        0.0386
     33 C         138.3167  144.0267  162.8928 C.3     1  UNL1        0.0594
     34 C         137.7547  144.3693  164.2407 C.3     1  UNL1        0.0174
     35 C         138.8926  144.7844  165.1255 C.3     1  UNL1        0.0174
     36 C         140.1579  144.6984  164.3245 C.3     1  UNL1        0.0594
     37 C         141.2483  144.5205  163.2956 C.3     1  UNL1        0.0386
     38 N         139.8020  144.2301  162.9445 N.3     1  UNL1       -0.2751
     39 C         143.5285  143.1826  162.3988 C.3     1  UNL1        0.0718
     40 C         143.1323  143.3843  160.9662 C.ar    1  UNL1        0.1207
     41 N         143.7160  143.2870  159.5878 N.ar    1  UNL1       -0.2309
     42 C         142.6484  143.6656  158.6045 C.ar    1  UNL1        0.0983
     43 C         142.6480  143.7515  157.1070 C.ar    1  UNL1        0.0206
     44 C         141.4040  144.1686  156.3801 C.ar    1  UNL1        0.0016
     45 C         140.1604  144.4999  157.1507 C.ar    1  UNL1        0.0016
     46 C         140.1609  144.4140  158.6482 C.ar    1  UNL1        0.0188
     47 C         141.4049  143.9968  159.3751 C.ar    1  UNL1        0.0785
     48 N         141.7040  143.8230  160.8347 N.ar    1  UNL1       -0.3167
@<TRIPOS>BOND
     1    39    40    1
     2    40    41   ar
     3    41    42   ar
     4    42    43   ar
     5    43    44   ar
     6    44    45   ar
     7    45    46   ar
     8    46    47   ar
     9    47    48   ar
    10    48    31    1
    11    31    32    1
    12    32    33    1
    13    33    34    1
    14    34    35    1
    15    35    36    1
    16    36    37    1
    17    36    38    1
    18    38    30    1
    19    30    29    1
    20    29     1    1
    21     1     9    1
    22     9    10   ar
    23    10    11   ar
    24    11    12   ar
    25    12    13   ar
    26    13    14    1
    27    13    15   ar
    28     1     2    1
    29     2     3    1
    30     3     4    1
    31     4     5   am
    32     5     6    2
    33     5    16    1
    34    16    17   ar
    35    17    18   ar
    36    18    23    1
    37    23    24    1
    38    23    25    2
    39    23    26    2
    40    18    19   ar
    41    19    20   ar
    42    20    21   ar
    43    21    22    1
    44     4     7    1
    45     7     8    1
    46    48    40   ar
    47    37    31    1
    48     8     1    1
    49    47    42   ar
    50    38    33    1
    51    15     9   ar
    52    21    16   ar
    53    24    27    1
    54    24    28    1
@<TRIPOS>MOLECULE
*****
 48 54 0 0 0
SMALL
GASTEIGER

@<TRIPOS>ATOM
      1 C         141.6301  141.8638  164.8800 C.3     1  UNL1        0.0236
      2 C         141.6253  140.9610  163.6821 C.3     1  UNL1        0.0257
      3 C         141.6788  141.5460  162.3019 C.3     1  UNL1        0.0940
      4 N         141.7370  143.0337  162.1196 N.am    1  UNL1       -0.2760
      5 C         141.7905  143.6187  160.7393 C.2     1  UNL1        0.2499
      6 O         141.8488  145.1064  160.5570 O.2     1  UNL1       -0.2699
      7 C         141.7418  143.9365  163.3175 C.3     1  UNL1        0.0940
      8 C         141.6883  143.3516  164.6976 C.3     1  UNL1        0.0257
      9 C         141.6125  142.3029  166.3143 C.ar    1  UNL1       -0.0204
     10 C         140.3715  142.9112  166.8972 C.ar    1  UNL1       -0.0041
     11 C         140.3540  143.3503  168.3314 C.ar    1  UNL1        0.0020
     12 C         141.5775  143.1811  169.1826 C.ar    1  UNL1        0.0296
     13 C         142.8185  142.5728  168.5996 C.ar    1  UNL1        0.1398
     14 F         144.0419  142.4036  169.4507 F       1  UNL1       -0.2042
     15 C         142.8359  142.1337  167.1653 C.ar    1  UNL1        0.0254
     16 C         141.7857  142.7158  159.5415 C.ar    1  UNL1        0.0655
     17 C         143.0815  142.2254  158.9667 C.ar    1  UNL1        0.0253
     18 C         143.0766  141.3225  157.7689 C.ar    1  UNL1        0.1219
     19 C         141.7759  140.9101  157.1458 C.ar    1  UNL1        0.0208
     20 C         140.4801  141.4005  157.7206 C.ar    1  UNL1        0.0129
     21 C         140.4850  142.3034  158.9184 C.ar    1  UNL1        0.0621
     22 CL        139.1892  142.7938  159.4932 Cl      1  UNL1       -0.0821
     23 S         144.3724  140.8321  157.1941 S.O2    1  UNL1        0.0572
     24 N         145.6682  140.3416  156.6192 N.3     1  UNL1       -0.2035
     25 O         143.9040  139.4153  157.3470 O.2     1  UNL1       -0.1532
     26 O         144.8408  142.2489  157.0411 O.2     1  UNL1       -0.1532
     27 H         145.6616  139.3221  156.5870 H       1  UNL1        0.1442
     28 H         146.4413  140.6583  157.2045 H       1  UNL1        0.1442
     29 C         141.5657  140.5286  165.5604 C.3     1  UNL1        0.0215
     30 C         140.3269  139.6899  165.4509 C.3     1  UNL1        0.0723
     31 C         140.2667  139.6547  165.3103 C.3     1  UNL1        0.0893
     32 C         139.2907  140.7712  165.5365 C.3     1  UNL1        0.0386
     33 C         138.2597  141.0887  164.4943 C.3     1  UNL1        0.0594
     34 C         137.4433  141.0490  163.2366 C.3     1  UNL1        0.0174
     35 C         137.9750  139.9432  162.3737 C.3     1  UNL1        0.0174
     36 C         139.1199  139.2995  163.0981 C.3     1  UNL1        0.0594
     37 C         140.2115  138.8559  164.0420 C.3     1  UNL1        0.0386
     38 N         139.2958  140.0074  164.4089 N.3     1  UNL1       -0.2751
     39 C         142.9291  138.5828  164.6335 C.3     1  UNL1        0.0718
     40 C         142.6712  138.7912  166.0963 C.ar    1  UNL1        0.1207
     41 N         143.3586  138.6265  167.4193 N.ar    1  UNL1       -0.2309
     42 C         142.4101  139.0707  168.4931 C.ar    1  UNL1        0.0983
     43 C         142.5416  139.1320  169.9860 C.ar    1  UNL1        0.0206
     44 C         141.3994  139.6325  170.8196 C.ar    1  UNL1        0.0016
     45 C         140.1257  140.0717  170.1602 C.ar    1  UNL1        0.0016
     46 C         139.9942  140.0105  168.6673 C.ar    1  UNL1        0.0188
     47 C         141.1364  139.5099  167.8337 C.ar    1  UNL1        0.0785
     48 N         141.2978  139.3372  166.3525 N.ar    1  UNL1       -0.3167
@<TRIPOS>BOND
     1    39    40    1
     2    40    41   ar
     3    41    42   ar
     4    42    43   ar
     5    43    44   ar
     6    44    45   ar
     7    45    46   ar
     8    46    47   ar
     9    47    48   ar
    10    48    31    1
    11    31    32    1
    12    32    33    1
    13    33    34    1
    14    34    35    1
    15    35    36    1
    16    36    37    1
    17    36    38    1
    18    38    30    1
    19    30    29    1
    20    29     1    1
    21     1     9    1
    22     9    10   ar
    23    10    11   ar
    24    11    12   ar
    25    12    13   ar
    26    13    14    1
    27    13    15   ar
    28     1     2    1
    29     2     3    1
    30     3     4    1
    31     4     5   am
    32     5     6    2
    33     5    16    1
    34    16    17   ar
    35    17    18   ar
    36    18    23    1
    37    23    24    1
    38    23    25    2
    39    23    26    2
    40    18    19   ar
    41    19    20   ar
    42    20    21   ar
    43    21    22    1
    44     4     7    1
    45     7     8    1
    46    48    40   ar
    47    37    31    1
    48     8     1    1
    49    47    42   ar
    50    38    33    1
    51    15     9   ar
    52    21    16   ar
    53    24    27    1
    54    24    28    1
@<TRIPOS>MOLECULE
*****
 48 54 0 0 0
SMALL
GASTEIGER

@<TRIPOS>ATOM
      1 C         140.9001  141.1452  160.9931 C.3     1  UNL1        0.0236
      2 C         140.2845  139.9983  160.2476 C.3     1  UNL1        0.0257
      3 C         141.0414  139.3335  159.1362 C.3     1  UNL1        0.0940
      4 N         142.4139  139.8156  158.7704 N.am    1  UNL1       -0.2760
      5 C         143.1709  139.1508  157.6590 C.2     1  UNL1        0.2499
      6 O         144.5434  139.6328  157.2931 O.2     1  UNL1       -0.2699
      7 C         143.0296  140.9624  159.5159 C.3     1  UNL1        0.0940
      8 C         142.2727  141.6272  160.6272 C.3     1  UNL1        0.0257
      9 C         141.0582  142.2590  161.9854 C.ar    1  UNL1       -0.0204
     10 C         140.9990  143.6859  161.5269 C.ar    1  UNL1       -0.0041
     11 C         141.1571  144.7997  162.5192 C.ar    1  UNL1        0.0020
     12 C         141.3743  144.4864  163.9700 C.ar    1  UNL1        0.0296
     13 C         141.4335  143.0594  164.4285 C.ar    1  UNL1        0.1398
     14 F         141.6507  142.7462  165.8791 F       1  UNL1       -0.2042
     15 C         141.2754  141.9457  163.4361 C.ar    1  UNL1        0.0254
     16 C         142.5552  138.0040  156.9135 C.ar    1  UNL1        0.0655
     17 C         142.9188  136.5939  157.2732 C.ar    1  UNL1        0.0253
     18 C         142.3031  135.4471  156.5276 C.ar    1  UNL1        0.1219
     19 C         141.3237  135.7104  155.4224 C.ar    1  UNL1        0.0208
     20 C         140.9601  137.1205  155.0627 C.ar    1  UNL1        0.0129
     21 C         141.5758  138.2673  155.8083 C.ar    1  UNL1        0.0621
     22 CL        141.2122  139.6774  155.4486 Cl      1  UNL1       -0.0821
     23 S         142.6667  134.0370  156.8873 S.O2    1  UNL1        0.0572
     24 N         143.0304  132.6269  157.2471 N.3     1  UNL1       -0.2035
     25 O         143.5162  134.5437  158.0150 O.2     1  UNL1       -0.1532
     26 O         141.8173  133.5303  155.7596 O.2     1  UNL1       -0.1532
     27 H         143.6574  132.6321  158.0516 H       1  UNL1        0.1442
     28 H         143.4966  132.1835  156.4556 H       1  UNL1        0.1442
     29 C         139.5826  141.0499  161.7036 C.3     1  UNL1        0.0215
     30 C         138.3170  141.4235  160.9901 C.3     1  UNL1        0.0723
     31 C         138.2855  141.3628  160.8488 C.3     1  UNL1        0.0893
     32 C         138.7802  142.6560  160.2715 C.3     1  UNL1        0.0386
     33 C         138.7889  142.8592  158.7854 C.3     1  UNL1        0.0594
     34 C         138.6223  142.6273  157.3128 C.3     1  UNL1        0.0174
     35 C         138.0561  141.2515  157.1214 C.3     1  UNL1        0.0174
     36 C         137.8728  140.6331  158.4756 C.3     1  UNL1        0.0594
     37 C         137.7996  140.2731  159.9399 C.3     1  UNL1        0.0386
     38 N         138.3258  141.6267  159.5041 N.3     1  UNL1       -0.2751
     39 C         137.7109  143.5464  162.7455 C.3     1  UNL1        0.0718
     40 C         137.9956  142.2112  163.3670 C.ar    1  UNL1        0.1207
     41 N         138.0927  141.5706  164.7198 N.ar    1  UNL1       -0.2309
     42 C         138.4339  140.1231  164.5239 C.ar    1  UNL1        0.0983
     43 C         138.6557  139.0036  165.4972 C.ar    1  UNL1        0.0206
     44 C         138.9912  137.6300  164.9966 C.ar    1  UNL1        0.0016
     45 C         139.1049  137.3760  163.5226 C.ar    1  UNL1        0.0016
     46 C         138.8831  138.4955  162.5493 C.ar    1  UNL1        0.0188
     47 C         138.5476  139.8691  163.0500 C.ar    1  UNL1        0.0785
     48 N         138.2767  141.1596  162.3350 N.ar    1  UNL1       -0.3167
@<TRIPOS>BOND
     1    39    40    1
     2    40    41   ar
     3    41    42   ar
     4    42    43   ar
     5    43    44   ar
     6    44    45   ar
     7    45    46   ar
     8    46    47   ar
     9    47    48   ar
    10    48    31    1
    11    31    32    1
    12    32    33    1
    13    33    34    1
    14    34    35    1
    15    35    36    1
    16    36    37    1
    17    36    38    1
    18    38    30    1
    19    30    29    1
    20    29     1    1
    21     1     9    1
    22     9    10   ar
    23    10    11   ar
    24    11    12   ar
    25    12    13   ar
    26    13    14    1
    27    13    15   ar
    28     1     2    1
    29     2     3    1
    30     3     4    1
    31     4     5   am
    32     5     6    2
    33     5    16    1
    34    16    17   ar
    35    17    18   ar
    36    18    23    1
    37    23    24    1
    38    23    25    2
    39    23    26    2
    40    18    19   ar
    41    19    20   ar
    42    20    21   ar
    43    21    22    1
    44     4     7    1
    45     7     8    1
    46    48    40   ar
    47    37    31    1
    48     8     1    1
    49    47    42   ar
    50    38    33    1
    51    15     9   ar
    52    21    16   ar
    53    24    27    1
    54    24    28    1
@<TRIPOS>MOLECULE
*****
 48 54 0 0 0
SMALL
GASTEIGER

@<TRIPOS>ATOM
      1 C         140.1757  140.8422  161.7299 C.3     1  UNL1        0.0236
      2 C         140.9836  141.4102  162.8590 C.3     1  UNL1        0.0257
      3 C         140.7967  140.8870  164.2523 C.3     1  UNL1        0.0940
      4 N         139.8020  139.7958  164.5166 N.am    1  UNL1       -0.2760
      5 C         139.6152  139.2726  165.9100 C.2     1  UNL1        0.2499
      6 O         138.6205  138.1814  166.1743 O.2     1  UNL1       -0.2699
      7 C         138.9942  139.2278  163.3876 C.3     1  UNL1        0.0940
      8 C         139.1810  139.7510  161.9943 C.3     1  UNL1        0.0257
      9 C         139.6498  140.6272  160.3416 C.ar    1  UNL1       -0.0204
     10 C         139.9819  139.3659  159.6008 C.ar    1  UNL1       -0.0041
     11 C         139.4560  139.1509  158.2125 C.ar    1  UNL1        0.0020
     12 C         138.5981  140.1973  157.5652 C.ar    1  UNL1        0.0296
     13 C         138.2660  141.4586  158.3060 C.ar    1  UNL1        0.1398
     14 F         137.4081  142.5048  157.6586 F       1  UNL1       -0.2042
     15 C         138.7919  141.6735  159.6943 C.ar    1  UNL1        0.0254
     16 C         140.4231  139.8407  167.0390 C.ar    1  UNL1        0.0655
     17 C         139.7795  140.7618  168.0326 C.ar    1  UNL1        0.0253
     18 C         140.5875  141.3298  169.1615 C.ar    1  UNL1        0.1219
     19 C         142.0390  140.9767  169.2969 C.ar    1  UNL1        0.0208
     20 C         142.6826  140.0555  168.3033 C.ar    1  UNL1        0.0129
     21 C         141.8746  139.4875  167.1743 C.ar    1  UNL1        0.0621
     22 CL        142.5182  138.5663  166.1807 Cl      1  UNL1       -0.0821
     23 S         139.9439  142.2510  170.1551 S.O2    1  UNL1        0.0572
     24 N         139.3003  143.1721  171.1488 N.3     1  UNL1       -0.2035
     25 O         138.8566  141.2435  170.3849 O.2     1  UNL1       -0.1532
     26 O         141.0312  143.2584  169.9254 O.2     1  UNL1       -0.1532
     27 H         138.4573  142.7350  171.5213 H       1  UNL1        0.1442
     28 H         139.0540  144.0490  170.6897 H       1  UNL1        0.1442
     29 C         140.9878  141.8587  160.9835 C.3     1  UNL1        0.0215
     30 C         142.4602  141.6471  160.7900 C.3     1  UNL1        0.0723
     31 C         142.5510  141.6010  160.9094 C.3     1  UNL1        0.0893
     32 C         142.4374  140.2114  160.3560 C.3     1  UNL1        0.0386
     33 C         143.1281  139.0714  161.0440 C.3     1  UNL1        0.0594
     34 C         143.9488  138.2796  162.0184 C.3     1  UNL1        0.0174
     35 C         144.4788  139.2259  163.0545 C.3     1  UNL1        0.0174
     36 C         143.9857  140.6026  162.7205 C.3     1  UNL1        0.0594
     37 C         143.3553  141.8505  162.1506 C.3     1  UNL1        0.0386
     38 N         143.1509  140.5071  161.4778 N.3     1  UNL1       -0.2751
     39 C         142.3229  141.7798  157.9749 C.3     1  UNL1        0.0718
     40 C         141.6996  142.9096  158.7397 C.ar    1  UNL1        0.1207
     41 N         140.9489  144.1854  158.4971 N.ar    1  UNL1       -0.2309
     42 C         140.6456  144.8053  159.8289 C.ar    1  UNL1        0.0983
     43 C         139.9294  146.0673  160.2088 C.ar    1  UNL1        0.0206
     44 C         139.7764  146.4365  161.6546 C.ar    1  UNL1        0.0016
     45 C         140.3396  145.5439  162.7203 C.ar    1  UNL1        0.0016
     46 C         141.0559  144.2819  162.3404 C.ar    1  UNL1        0.0188
     47 C         141.2089  143.9126  160.8947 C.ar    1  UNL1        0.0785
     48 N         141.8602  142.7411  160.2215 N.ar    1  UNL1       -0.3167
@<TRIPOS>BOND
     1    39    40    1
     2    40    41   ar
     3    41    42   ar
     4    42    43   ar
     5    43    44   ar
     6    44    45   ar
     7    45    46   ar
     8    46    47   ar
     9    47    48   ar
    10    48    31    1
    11    31    32    1
    12    32    33    1
    13    33    34    1
    14    34    35    1
    15    35    36    1
    16    36    37    1
    17    36    38    1
    18    38    30    1
    19    30    29    1
    20    29     1    1
    21     1     9    1
    22     9    10   ar
    23    10    11   ar
    24    11    12   ar
    25    12    13   ar
    26    13    14    1
    27    13    15   ar
    28     1     2    1
    29     2     3    1
    30     3     4    1
    31     4     5   am
    32     5     6    2
    33     5    16    1
    34    16    17   ar
    35    17    18   ar
    36    18    23    1
    37    23    24    1
    38    23    25    2
    39    23    26    2
    40    18    19   ar
    41    19    20   ar
    42    20    21   ar
    43    21    22    1
    44     4     7    1
    45     7     8    1
    46    48    40   ar
    47    37    31    1
    48     8     1    1
    49    47    42   ar
    50    38    33    1
    51    15     9   ar
    52    21    16   ar
    53    24    27    1
    54    24    28    1
@<TRIPOS>MOLECULE
*****
 48 54 0 0 0
SMALL
GASTEIGER

@<TRIPOS>ATOM
      1 C         140.5352  141.8929  162.2199 C.3     1  UNL1        0.0236
      2 C         141.1462  142.4366  163.4773 C.3     1  UNL1        0.0257
      3 C         141.0809  141.6415  164.7476 C.3     1  UNL1        0.0940
      4 N         140.4045  140.3028  164.7606 N.am    1  UNL1       -0.2760
      5 C         140.3391  139.5078  166.0309 C.2     1  UNL1        0.2499
      6 O         139.6627  138.1690  166.0438 O.2     1  UNL1       -0.2699
      7 C         139.7934  139.7591  163.5032 C.3     1  UNL1        0.0940
      8 C         139.8587  140.5541  162.2329 C.3     1  UNL1        0.0257
      9 C         140.1073  141.8032  160.7850 C.ar    1  UNL1       -0.0204
     10 C         138.9296  142.5969  160.3025 C.ar    1  UNL1       -0.0041
     11 C         138.5018  142.5073  158.8675 C.ar    1  UNL1        0.0020
     12 C         139.2518  141.6239  157.9152 C.ar    1  UNL1        0.0296
     13 C         140.4297  140.8302  158.3977 C.ar    1  UNL1        0.1398
     14 F         141.1796  139.9468  157.4453 F       1  UNL1       -0.2042
     15 C         140.8574  140.9199  159.8326 C.ar    1  UNL1        0.0254
     16 C         140.9503  140.0515  167.2882 C.ar    1  UNL1        0.0655
     17 C         140.1479  140.9459  168.1862 C.ar    1  UNL1        0.0253
     18 C         140.7592  141.4896  169.4435 C.ar    1  UNL1        0.1219
     19 C         142.1727  141.1390  169.8027 C.ar    1  UNL1        0.0208
     20 C         142.9750  140.2447  168.9048 C.ar    1  UNL1        0.0129
     21 C         142.3638  139.7009  167.6475 C.ar    1  UNL1        0.0621
     22 CL        143.1661  138.8066  166.7495 Cl      1  UNL1       -0.0821
     23 S         139.9568  142.3840  170.3414 S.O2    1  UNL1        0.0572
     24 N         139.1545  143.2785  171.2395 N.3     1  UNL1       -0.2035
     25 O         141.0732  143.3859  170.3410 O.2     1  UNL1       -0.1532
     26 O         138.8405  141.3821  170.3418 O.2     1  UNL1       -0.1532
     27 H         139.6884  144.1235  171.4428 H       1  UNL1        0.1442
     28 H         138.9480  142.7891  172.1103 H       1  UNL1        0.1442
     29 C         141.0630  143.2004  161.7086 C.3     1  UNL1        0.0215
     30 C         142.5428  143.4347  161.6352 C.3     1  UNL1        0.0723
     31 C         142.6352  143.4111  161.7598 C.3     1  UNL1        0.0893
     32 C         142.9588  142.0718  161.1668 C.3     1  UNL1        0.0386
     33 C         143.9010  141.1452  161.8764 C.3     1  UNL1        0.0594
     34 C         144.8498  140.5765  162.8896 C.3     1  UNL1        0.0174
     35 C         145.0202  141.5880  163.9840 C.3     1  UNL1        0.0174
     36 C         144.1767  142.7818  163.6474 C.3     1  UNL1        0.0594
     37 C         143.2539  143.8237  163.0625 C.3     1  UNL1        0.0386
     38 N         143.4850  142.5082  162.3447 N.3     1  UNL1       -0.2751
     39 C         140.7829  145.1983  163.1988 C.3     1  UNL1        0.0718
     40 C         140.7214  145.2763  161.7022 C.ar    1  UNL1        0.1207
     41 N         139.9849  146.0071  160.6188 N.ar    1  UNL1       -0.2309
     42 C         140.5012  145.5201  159.2974 C.ar    1  UNL1        0.0983
     43 C         140.1465  145.8828  157.8858 C.ar    1  UNL1        0.0206
     44 C         140.8474  145.2137  156.7409 C.ar    1  UNL1        0.0016
     45 C         141.9031  144.1820  157.0074 C.ar    1  UNL1        0.0016
     46 C         142.2578  143.8193  158.4190 C.ar    1  UNL1        0.0188
     47 C         141.5569  144.4883  159.5640 C.ar    1  UNL1        0.0785
     48 N         141.6930  144.3377  161.0502 N.ar    1  UNL1       -0.3167
@<TRIPOS>BOND
     1    39    40    1
     2    40    41   ar
     3    41    42   ar
     4    42    43   ar
     5    43    44   ar
     6    44    45   ar
     7    45    46   ar
     8    46    47   ar
     9    47    48   ar
    10    48    31    1
    11    31    32    1
    12    32    33    1
    13    33    34    1
    14    34    35    1
    15    35    36    1
    16    36    37    1
    17    36    38    1
    18    38    30    1
    19    30    29    1
    20    29     1    1
    21     1     9    1
    22     9    10   ar
    23    10    11   ar
    24    11    12   ar
    25    12    13   ar
    26    13    14    1
    27    13    15   ar
    28     1     2    1
    29     2     3    1
    30     3     4    1
    31     4     5   am
    32     5     6    2
    33     5    16    1
    34    16    17   ar
    35    17    18   ar
    36    18    23    1
    37    23    24    1
    38    23    25    2
    39    23    26    2
    40    18    19   ar
    41    19    20   ar
    42    20    21   ar
    43    21    22    1
    44     4     7    1
    45     7     8    1
    46    48    40   ar
    47    37    31    1
    48     8     1    1
    49    47    42   ar
    50    38    33    1
    51    15     9   ar
    52    21    16   ar
    53    24    27    1
    54    24    28    1
@<TRIPOS>MOLECULE
*****
 48 54 0 0 0
SMALL
GASTEIGER

@<TRIPOS>ATOM
      1 C         141.0846  141.9733  161.9677 C.3     1  UNL1        0.0236
      2 C         140.4448  141.2927  163.1414 C.3     1  UNL1        0.0257
      3 C         141.0684  141.3989  164.5015 C.3     1  UNL1        0.0940
      4 N         142.3318  142.1857  164.6880 N.am    1  UNL1       -0.2760
      5 C         142.9554  142.2919  166.0481 C.2     1  UNL1        0.2499
      6 O         144.2188  143.0787  166.2346 O.2     1  UNL1       -0.2699
      7 C         142.9716  142.8663  163.5143 C.3     1  UNL1        0.0940
      8 C         142.3481  142.7601  162.1543 C.3     1  UNL1        0.0257
      9 C         141.3133  142.4365  160.5595 C.ar    1  UNL1       -0.0204
     10 C         141.7707  141.4625  159.5145 C.ar    1  UNL1       -0.0041
     11 C         141.9994  141.9258  158.1062 C.ar    1  UNL1        0.0020
     12 C         141.7706  143.3631  157.7431 C.ar    1  UNL1        0.0296
     13 C         141.3132  144.3371  158.7881 C.ar    1  UNL1        0.1398
     14 F         141.0846  145.7743  158.4249 F       1  UNL1       -0.2042
     15 C         141.0846  143.8738  160.1963 C.ar    1  UNL1        0.0254
     16 C         142.3155  141.6113  167.2217 C.ar    1  UNL1        0.0655
     17 C         141.4790  142.4025  168.1831 C.ar    1  UNL1        0.0253
     18 C         140.8392  141.7218  169.3567 C.ar    1  UNL1        0.1219
     19 C         141.0358  140.2499  169.5688 C.ar    1  UNL1        0.0208
     20 C         141.8722  139.4587  168.6074 C.ar    1  UNL1        0.0129
     21 C         142.5121  140.1394  167.4338 C.ar    1  UNL1        0.0621
     22 CL        143.3485  139.3482  166.4724 Cl      1  UNL1       -0.0821
     23 S         140.0027  142.5129  170.3181 S.O2    1  UNL1        0.0572
     24 N         139.1663  143.3042  171.2796 N.3     1  UNL1       -0.2035
     25 O         141.0167  143.6180  170.2909 O.2     1  UNL1       -0.1532
     26 O         138.9888  141.4079  170.3454 O.2     1  UNL1       -0.1532
     27 H         139.6268  144.1920  171.4801 H       1  UNL1        0.1442
     28 H         139.0529  142.7769  172.1454 H       1  UNL1        0.1442
     29 C         139.9007  141.3474  161.2922 C.3     1  UNL1        0.0215
     30 C         138.5143  141.8146  161.6238 C.3     1  UNL1        0.0723
     31 C         138.4651  141.8335  161.7716 C.3     1  UNL1        0.0893
     32 C         138.8109  143.2849  161.6163 C.3     1  UNL1        0.0386
     33 C         138.5920  144.2343  162.7569 C.3     1  UNL1        0.0594
     34 C         138.2214  144.7887  164.1005 C.3     1  UNL1        0.0174
     35 C         137.6956  143.6609  164.9383 C.3     1  UNL1        0.0174
     36 C         137.7414  142.4095  164.1125 C.3     1  UNL1        0.0594
     37 C         137.9004  141.3317  163.0674 C.3     1  UNL1        0.0386
     38 N         138.2954  142.7639  162.7642 N.3     1  UNL1       -0.2751
     39 C         139.1657  138.9983  162.1792 C.3     1  UNL1        0.0718
     40 C         139.0417  139.4322  160.7487 C.ar    1  UNL1        0.1207
     41 N         139.1624  138.8709  159.3630 N.ar    1  UNL1       -0.2309
     42 C         138.8794  139.9759  158.3889 C.ar    1  UNL1        0.0983
     43 C         138.8527  140.0098  156.8895 C.ar    1  UNL1        0.0206
     44 C         138.5303  141.2881  156.1739 C.ar    1  UNL1        0.0016
     45 C         138.2346  142.5324  156.9577 C.ar    1  UNL1        0.0016
     46 C         138.2613  142.4985  158.4570 C.ar    1  UNL1        0.0188
     47 C         138.5837  141.2202  159.1726 C.ar    1  UNL1        0.0785
     48 N         138.6840  140.8842  160.6311 N.ar    1  UNL1       -0.3167
@<TRIPOS>BOND
     1    39    40    1
     2    40    41   ar
     3    41    42   ar
     4    42    43   ar
     5    43    44   ar
     6    44    45   ar
     7    45    46   ar
     8    46    47   ar
     9    47    48   ar
    10    48    31    1
    11    31    32    1
    12    32    33    1
    13    33    34    1
    14    34    35    1
    15    35    36    1
    16    36    37    1
    17    36    38    1
    18    38    30    1
    19    30    29    1
    20    29     1    1
    21     1     9    1
    22     9    10   ar
    23    10    11   ar
    24    11    12   ar
    25    12    13   ar
    26    13    14    1
    27    13    15   ar
    28     1     2    1
    29     2     3    1
    30     3     4    1
    31     4     5   am
    32     5     6    2
    33     5    16    1
    34    16    17   ar
    35    17    18   ar
    36    18    23    1
    37    23    24    1
    38    23    25    2
    39    23    26    2
    40    18    19   ar
    41    19    20   ar
    42    20    21   ar
    43    21    22    1
    44     4     7    1
    45     7     8    1
    46    48    40   ar
    47    37    31    1
    48     8     1    1
    49    47    42   ar
    50    38    33    1
    51    15     9   ar
    52    21    16   ar
    53    24    27    1
    54    24    28    1
@<TRIPOS>MOLECULE
*****
 48 54 0 0 0
SMALL
GASTEIGER

@<TRIPOS>ATOM
      1 C         141.1280  141.7784  161.6946 C.3     1  UNL1        0.0236
      2 C         141.1172  142.4190  163.0509 C.3     1  UNL1        0.0257
      3 C         140.9545  141.5728  164.2788 C.3     1  UNL1        0.0940
      4 N         140.8024  140.0861  164.1502 N.am    1  UNL1       -0.2760
      5 C         140.6397  139.2399  165.3781 C.2     1  UNL1        0.2499
      6 O         140.4876  137.7531  165.2495 O.2     1  UNL1       -0.2699
      7 C         140.8132  139.4455  162.7939 C.3     1  UNL1        0.0940
      8 C         140.9759  140.2916  161.5662 C.3     1  UNL1        0.0257
      9 C         141.2002  141.6371  160.2030 C.ar    1  UNL1       -0.0204
     10 C         142.4072  141.0146  159.5662 C.ar    1  UNL1       -0.0041
     11 C         142.4794  140.8733  158.0745 C.ar    1  UNL1        0.0020
     12 C         141.3446  141.3546  157.2198 C.ar    1  UNL1        0.0296
     13 C         140.1375  141.9771  157.8567 C.ar    1  UNL1        0.1398
     14 F         139.0028  142.4583  157.0020 F       1  UNL1       -0.2042
     15 C         140.0654  142.1183  159.3483 C.ar    1  UNL1        0.0254
     16 C         140.6290  139.8805  166.7343 C.ar    1  UNL1        0.0655
     17 C         141.8439  140.6072  167.2302 C.ar    1  UNL1        0.0253
     18 C         141.8331  141.2477  168.5865 C.ar    1  UNL1        0.1219
     19 C         140.6074  141.1616  169.4469 C.ar    1  UNL1        0.0208
     20 C         139.3925  140.4350  168.9510 C.ar    1  UNL1        0.0129
     21 C         139.4033  139.7944  167.5947 C.ar    1  UNL1        0.0621
     22 CL        138.1884  139.0677  167.0988 Cl      1  UNL1       -0.0821
     23 S         143.0480  141.9744  169.0824 S.O2    1  UNL1        0.0572
     24 N         144.2630  142.7012  169.5783 N.3     1  UNL1       -0.2035
     25 O         143.3684  142.3964  167.6791 O.2     1  UNL1       -0.1532
     26 O         142.7276  141.5524  170.4857 O.2     1  UNL1       -0.1532
     27 H         144.7437  143.1364  168.7910 H       1  UNL1        0.1442
     28 H         144.8906  142.0408  170.0369 H       1  UNL1        0.1442
     29 C         141.3051  143.2160  161.3051 C.3     1  UNL1        0.0215
     30 C         142.5827  143.9302  161.6334 C.3     1  UNL1        0.0723
     31 C         142.6509  143.9117  161.7736 C.3     1  UNL1        0.0893
     32 C         143.5622  142.9212  161.1113 C.3     1  UNL1        0.0386
     33 C         144.6247  142.2278  161.9115 C.3     1  UNL1        0.0594
     34 C         145.4997  141.7981  163.0516 C.3     1  UNL1        0.0174
     35 C         145.0610  142.5416  164.2783 C.3     1  UNL1        0.0174
     36 C         143.9149  143.4307  163.8964 C.3     1  UNL1        0.0594
     37 C         142.8023  144.2088  163.2360 C.3     1  UNL1        0.0386
     38 N         143.6452  143.2368  162.4336 N.3     1  UNL1       -0.2751
     39 C         140.2002  145.0023  162.9984 C.3     1  UNL1        0.0718
     40 C         140.3161  145.1870  161.5143 C.ar    1  UNL1        0.1207
     41 N         139.5531  145.7798  160.3670 N.ar    1  UNL1       -0.2309
     42 C         140.3538  145.5642  159.1170 C.ar    1  UNL1        0.0983
     43 C         140.1000  145.9353  157.6860 C.ar    1  UNL1        0.0206
     44 C         141.1041  145.5802  156.6298 C.ar    1  UNL1        0.0016
     45 C         142.3620  144.8542  157.0046 C.ar    1  UNL1        0.0016
     46 C         142.6158  144.4832  158.4356 C.ar    1  UNL1        0.0188
     47 C         141.6117  144.8382  159.4918 C.ar    1  UNL1        0.0785
     48 N         141.5884  144.6051  160.9734 N.ar    1  UNL1       -0.3167
@<TRIPOS>BOND
     1    39    40    1
     2    40    41   ar
     3    41    42   ar
     4    42    43   ar
     5    43    44   ar
     6    44    45   ar
     7    45    46   ar
     8    46    47   ar
     9    47    48   ar
    10    48    31    1
    11    31    32    1
    12    32    33    1
    13    33    34    1
    14    34    35    1
    15    35    36    1
    16    36    37    1
    17    36    38    1
    18    38    30    1
    19    30    29    1
    20    29     1    1
    21     1     9    1
    22     9    10   ar
    23    10    11   ar
    24    11    12   ar
    25    12    13   ar
    26    13    14    1
    27    13    15   ar
    28     1     2    1
    29     2     3    1
    30     3     4    1
    31     4     5   am
    32     5     6    2
    33     5    16    1
    34    16    17   ar
    35    17    18   ar
    36    18    23    1
    37    23    24    1
    38    23    25    2
    39    23    26    2
    40    18    19   ar
    41    19    20   ar
    42    20    21   ar
    43    21    22    1
    44     4     7    1
    45     7     8    1
    46    48    40   ar
    47    37    31    1
    48     8     1    1
    49    47    42   ar
    50    38    33    1
    51    15     9   ar
    52    21    16   ar
    53    24    27    1
    54    24    28    1
@<TRIPOS>MOLECULE
*****
 48 54 0 0 0
SMALL
GASTEIGER

@<TRIPOS>ATOM
      1 C         140.4624  141.9135  161.1194 C.3     1  UNL1        0.0236
      2 C         141.6293  141.5306  160.2581 C.3     1  UNL1        0.0257
      3 C         141.4028  140.7837  158.9771 C.3     1  UNL1        0.0940
      4 N         140.0095  140.4197  158.5574 N.am    1  UNL1       -0.2760
      5 C         139.7830  139.6728  157.2764 C.2     1  UNL1        0.2499
      6 O         138.3897  139.3089  156.8567 O.2     1  UNL1       -0.2699
      7 C         138.8426  140.8026  159.4186 C.3     1  UNL1        0.0940
      8 C         139.0690  141.5495  160.6996 C.3     1  UNL1        0.0257
      9 C         139.6856  142.4927  162.2645 C.ar    1  UNL1       -0.0204
     10 C         138.8192  143.6981  162.0496 C.ar    1  UNL1       -0.0041
     11 C         138.0425  144.2772  163.1948 C.ar    1  UNL1        0.0020
     12 C         138.1323  143.6509  164.5548 C.ar    1  UNL1        0.0296
     13 C         138.9987  142.4454  164.7697 C.ar    1  UNL1        0.1398
     14 F         139.0885  141.8192  166.1297 F       1  UNL1       -0.2042
     15 C         139.7754  141.8664  163.6245 C.ar    1  UNL1        0.0254
     16 C         140.9500  139.2900  156.4152 C.ar    1  UNL1        0.0655
     17 C         141.6162  137.9593  156.6032 C.ar    1  UNL1        0.0253
     18 C         142.7832  137.5765  155.7419 C.ar    1  UNL1        0.1219
     19 C         143.2838  138.5244  154.6927 C.ar    1  UNL1        0.0208
     20 C         142.6176  139.8550  154.5047 C.ar    1  UNL1        0.0129
     21 C         141.4506  140.2378  155.3660 C.ar    1  UNL1        0.0621
     22 CL        140.7844  141.5685  155.1780 Cl      1  UNL1       -0.0821
     23 S         143.4494  136.2458  155.9299 S.O2    1  UNL1        0.0572
     24 N         144.1158  134.9151  156.1179 N.3     1  UNL1       -0.2035
     25 O         144.7701  136.8553  155.5636 O.2     1  UNL1       -0.1532
     26 O         142.1287  135.6363  156.2962 O.2     1  UNL1       -0.1532
     27 H         145.1135  135.0042  155.9256 H       1  UNL1        0.1442
     28 H         143.7055  134.2358  155.4771 H       1  UNL1        0.1442
     29 C         141.5859  142.4786  161.9368 C.3     1  UNL1        0.0215
     30 C         142.3452  143.6742  161.4428 C.3     1  UNL1        0.0723
     31 C         142.3907  143.6757  161.2926 C.3     1  UNL1        0.0893
     32 C         141.2500  144.6162  161.0390 C.3     1  UNL1        0.0386
     33 C         141.0045  145.1417  159.6557 C.3     1  UNL1        0.0594
     34 C         141.1342  145.3996  158.1837 C.3     1  UNL1        0.0174
     35 C         142.3096  144.6170  157.6779 C.3     1  UNL1        0.0174
     36 C         142.9064  143.8754  158.8371 C.3     1  UNL1        0.0594
     37 C         143.2858  143.2607  160.1628 C.3     1  UNL1        0.0386
     38 N         142.0997  144.1997  160.0596 N.3     1  UNL1       -0.2751
     39 C         141.7361  145.2220  163.7167 C.3     1  UNL1        0.0718
     40 C         142.3341  143.8677  163.9581 C.ar    1  UNL1        0.1207
     41 N         142.7382  142.9759  165.0945 N.ar    1  UNL1       -0.2309
     42 C         143.2900  141.7073  164.5147 C.ar    1  UNL1        0.0983
     43 C         143.8416  140.4680  165.1548 C.ar    1  UNL1        0.0206
     44 C         144.3303  139.3364  164.3000 C.ar    1  UNL1        0.0016
     45 C         144.2673  139.4441  162.8052 C.ar    1  UNL1        0.0016
     46 C         143.7157  140.6835  162.1652 C.ar    1  UNL1        0.0188
     47 C         143.2270  141.8150  163.0199 C.ar    1  UNL1        0.0785
     48 N         142.6363  143.1502  162.6759 N.ar    1  UNL1       -0.3167
@<TRIPOS>BOND
     1    39    40    1
     2    40    41   ar
     3    41    42   ar
     4    42    43   ar
     5    43    44   ar
     6    44    45   ar
     7    45    46   ar
     8    46    47   ar
     9    47    48   ar
    10    48    31    1
    11    31    32    1
    12    32    33    1
    13    33    34    1
    14    34    35    1
    15    35    36    1
    16    36    37    1
    17    36    38    1
    18    38    30    1
    19    30    29    1
    20    29     1    1
    21     1     9    1
    22     9    10   ar
    23    10    11   ar
    24    11    12   ar
    25    12    13   ar
    26    13    14    1
    27    13    15   ar
    28     1     2    1
    29     2     3    1
    30     3     4    1
    31     4     5   am
    32     5     6    2
    33     5    16    1
    34    16    17   ar
    35    17    18   ar
    36    18    23    1
    37    23    24    1
    38    23    25    2
    39    23    26    2
    40    18    19   ar
    41    19    20   ar
    42    20    21   ar
    43    21    22    1
    44     4     7    1
    45     7     8    1
    46    48    40   ar
    47    37    31    1
    48     8     1    1
    49    47    42   ar
    50    38    33    1
    51    15     9   ar
    52    21    16   ar
    53    24    27    1
    54    24    28    1
@<TRIPOS>MOLECULE
*****
 48 54 0 0 0
SMALL
GASTEIGER

@<TRIPOS>ATOM
      1 C         140.8621  140.9275  161.4717 C.3     1  UNL1        0.0236
      2 C         141.6303  140.3839  162.6398 C.3     1  UNL1        0.0257
      3 C         141.4588  140.9937  163.9994 C.3     1  UNL1        0.0940
      4 N         140.5191  142.1471  164.1911 N.am    1  UNL1       -0.2760
      5 C         140.3477  142.7569  165.5508 C.2     1  UNL1        0.2499
      6 O         139.4080  143.9103  165.7424 O.2     1  UNL1       -0.2699
      7 C         139.7510  142.6907  163.0230 C.3     1  UNL1        0.0940
      8 C         139.9224  142.0809  161.6633 C.3     1  UNL1        0.0257
      9 C         140.3596  141.0902  160.0677 C.ar    1  UNL1       -0.0204
     10 C         141.2593  141.6575  159.0101 C.ar    1  UNL1       -0.0041
     11 C         140.7568  141.8202  157.6061 C.ar    1  UNL1        0.0020
     12 C         139.3545  141.4155  157.2599 C.ar    1  UNL1        0.0296
     13 C         138.4548  140.8481  158.3175 C.ar    1  UNL1        0.1398
     14 F         137.0526  140.4435  157.9712 F       1  UNL1       -0.2042
     15 C         138.9574  140.6855  159.7214 C.ar    1  UNL1        0.0254
     16 C         141.1159  142.2133  166.7188 C.ar    1  UNL1        0.0655
     17 C         140.3997  141.4698  167.8070 C.ar    1  UNL1        0.0253
     18 C         141.1680  140.9262  168.9750 C.ar    1  UNL1        0.1219
     19 C         142.6525  141.1261  169.0548 C.ar    1  UNL1        0.0208
     20 C         143.3687  141.8696  167.9665 C.ar    1  UNL1        0.0129
     21 C         142.6004  142.4132  166.7985 C.ar    1  UNL1        0.0621
     22 CL        143.3166  143.1567  165.7103 Cl      1  UNL1       -0.0821
     23 S         140.4518  140.1827  170.0632 S.O2    1  UNL1        0.0572
     24 N         139.7356  139.4392  171.1516 N.3     1  UNL1       -0.2035
     25 O         141.5069  140.6014  171.0437 O.2     1  UNL1       -0.1532
     26 O         139.3966  139.7640  169.0827 O.2     1  UNL1       -0.1532
     27 H         140.2498  139.5391  172.0268 H       1  UNL1        0.1442
     28 H         139.6735  138.4515  170.9046 H       1  UNL1        0.1442
     29 C         141.6272  139.8306  160.7925 C.3     1  UNL1        0.0215
     30 C         141.3521  138.3976  161.1404 C.3     1  UNL1        0.0723
     31 C         141.3478  138.3492  161.2896 C.3     1  UNL1        0.0893
     32 C         139.8554  138.4739  161.2043 C.3     1  UNL1        0.0386
     33 C         139.0057  138.1409  162.3948 C.3     1  UNL1        0.0594
     34 C         138.5785  137.7202  163.7697 C.3     1  UNL1        0.0174
     35 C         139.8112  137.3840  164.5555 C.3     1  UNL1        0.0174
     36 C         141.0002  137.5968  163.6662 C.3     1  UNL1        0.0594
     37 C         141.9904  137.8916  162.5653 C.3     1  UNL1        0.0386
     38 N         140.5024  138.0646  162.3307 N.3     1  UNL1       -0.2751
     39 C         144.0749  139.4423  161.5425 C.3     1  UNL1        0.0718
     40 C         143.5896  139.2397  160.1378 C.ar    1  UNL1        0.1207
     41 N         144.0567  139.4183  158.7236 N.ar    1  UNL1       -0.2309
     42 C         142.9533  138.9713  157.8110 C.ar    1  UNL1        0.0983
     43 C         142.8465  138.9196  156.3157 C.ar    1  UNL1        0.0206
     44 C         141.5906  138.4131  155.6707 C.ar    1  UNL1        0.0016
     45 C         140.4416  137.9582  156.5208 C.ar    1  UNL1        0.0016
     46 C         140.5484  138.0099  158.0161 C.ar    1  UNL1        0.0188
     47 C         141.8043  138.5164  158.6612 C.ar    1  UNL1        0.0785
     48 N         142.1975  138.6823  160.0992 N.ar    1  UNL1       -0.3167
@<TRIPOS>BOND
     1    39    40    1
     2    40    41   ar
     3    41    42   ar
     4    42    43   ar
     5    43    44   ar
     6    44    45   ar
     7    45    46   ar
     8    46    47   ar
     9    47    48   ar
    10    48    31    1
    11    31    32    1
    12    32    33    1
    13    33    34    1
    14    34    35    1
    15    35    36    1
    16    36    37    1
    17    36    38    1
    18    38    30    1
    19    30    29    1
    20    29     1    1
    21     1     9    1
    22     9    10   ar
    23    10    11   ar
    24    11    12   ar
    25    12    13   ar
    26    13    14    1
    27    13    15   ar
    28     1     2    1
    29     2     3    1
    30     3     4    1
    31     4     5   am
    32     5     6    2
    33     5    16    1
    34    16    17   ar
    35    17    18   ar
    36    18    23    1
    37    23    24    1
    38    23    25    2
    39    23    26    2
    40    18    19   ar
    41    19    20   ar
    42    20    21   ar
    43    21    22    1
    44     4     7    1
    45     7     8    1
    46    48    40   ar
    47    37    31    1
    48     8     1    1
    49    47    42   ar
    50    38    33    1
    51    15     9   ar
    52    21    16   ar
    53    24    27    1
    54    24    28    1
