@<TRIPOS>MOLECULE
*****
 32 35 0 0 0
SMALL
GASTEIGER

@<TRIPOS>ATOM
      1 C         138.8137  141.2491  164.1733 C.ar    1  UNL1       -0.0207
      2 C         139.7752  142.3171  164.6034 C.ar    1  UNL1       -0.0042
      3 C         140.3271  142.3119  165.9981 C.ar    1  UNL1       -0.0003
      4 C         139.9175  141.2387  166.9628 C.ar    1  UNL1       -0.0000
      5 C         138.9560  140.1708  166.5327 C.ar    1  UNL1       -0.0003
      6 C         138.4041  140.1760  165.1380 C.ar    1  UNL1       -0.0042
      7 C         140.4694  141.2336  168.3576 C.ar    1  UNL1        0.0001
      8 C         139.8309  140.3810  169.4137 C.ar    1  UNL1        0.0000
      9 C         140.3828  140.3758  170.8085 C.ar    1  UNL1        0.0001
     10 C         141.5733  141.2233  171.1471 C.ar    1  UNL1        0.0031
     11 C         142.2118  142.0759  170.0910 C.ar    1  UNL1        0.0371
     12 C         141.6598  142.0810  168.6962 C.ar    1  UNL1        0.0031
     13 C         143.4022  142.9234  170.4296 C.ar    1  UNL1        0.1806
     14 N         144.8118  142.6856  169.9751 N.ar    1  UNL1       -0.1084
     15 N         145.6728  143.7726  170.5468 N.ar    1  UNL1       -0.0229
     16 N         144.7954  144.6823  171.3546 N.ar    1  UNL1       -0.0464
     17 N         143.3921  144.1574  171.2822 N.ar    1  UNL1       -0.2388
     18 H         142.6030  144.5534  171.7178 H       1  UNL1        0.1923
     19 C         137.5405  142.4637  162.2618 C.3     1  UNL1        0.0066
     20 C         138.2618  141.2543  162.7785 C.3     1  UNL1        0.0454
     21 C         138.4311  140.0500  161.9005 C.3     1  UNL1        0.1325
     22 N         137.3574  139.0038  161.8470 N.3     1  UNL1       -0.3148
     23 H         136.5912  139.2711  162.4651 H       1  UNL1        0.1192
     24 H         137.7404  138.1078  162.1482 H       1  UNL1        0.1192
     25 C         139.6741  139.8917  161.0760 C.2     1  UNL1        0.2401
     26 O         139.7507  140.5052  159.7093 O.2     1  UNL1       -0.2734
     27 N         140.8405  139.1200  161.6181 N.am    1  UNL1       -0.2756
     28 C         140.9098  138.4538  162.9602 C.3     1  UNL1        0.0964
     29 C         142.2546  137.8010  163.0849 C.3     1  UNL1        0.0585
     30 C         143.0165  138.0639  161.8198 C.3     1  UNL1        0.1824
     31 F         144.4079  137.5941  161.5148 F       1  UNL1       -0.2354
     32 C         142.1425  138.8790  160.9133 C.3     1  UNL1        0.1286
@<TRIPOS>BOND
     1    20    19    1
     2    20     1    1
     3     1     2   ar
     4     2     3   ar
     5     3     4   ar
     6     4     7    1
     7     7     8   ar
     8     8     9   ar
     9     9    10   ar
    10    10    11   ar
    11    11    13    1
    12    13    14   ar
    13    14    15   ar
    14    15    16   ar
    15    16    17   ar
    16    11    12   ar
    17     4     5   ar
    18     5     6   ar
    19    20    21    1
    20    21    22    1
    21    21    25    1
    22    25    26    2
    23    25    27   am
    24    27    28    1
    25    28    29    1
    26    29    30    1
    27    30    31    1
    28    30    32    1
    29     6     1   ar
    30    32    27    1
    31    12     7   ar
    32    17    13   ar
    33    17    18    1
    34    22    23    1
    35    22    24    1
@<TRIPOS>MOLECULE
*****
 32 35 0 0 0
SMALL
GASTEIGER

@<TRIPOS>ATOM
      1 C         142.4460  142.6281  162.2022 C.ar    1  UNL1       -0.0207
      2 C         143.2161  143.2551  163.3262 C.ar    1  UNL1       -0.0042
      3 C         143.2110  142.6197  164.6850 C.ar    1  UNL1       -0.0003
      4 C         142.4357  141.3572  164.9196 C.ar    1  UNL1       -0.0000
      5 C         141.6655  140.7301  163.7955 C.ar    1  UNL1       -0.0003
      6 C         141.6707  141.3656  162.4368 C.ar    1  UNL1       -0.0042
      7 C         142.4306  140.7218  166.2784 C.ar    1  UNL1        0.0001
      8 C         143.0941  139.3928  166.4874 C.ar    1  UNL1        0.0000
      9 C         143.0890  138.7574  167.8462 C.ar    1  UNL1        0.0001
     10 C         142.4203  139.4510  168.9959 C.ar    1  UNL1        0.0031
     11 C         141.7568  140.7799  168.7869 C.ar    1  UNL1        0.0371
     12 C         141.7620  141.4153  167.4281 C.ar    1  UNL1        0.0031
     13 C         141.0882  141.4735  169.9366 C.ar    1  UNL1        0.1806
     14 N         141.3489  141.2194  171.3918 N.ar    1  UNL1       -0.1084
     15 N         140.4633  142.1318  172.1876 N.ar    1  UNL1       -0.0229
     16 N         139.6552  142.9497  171.2243 N.ar    1  UNL1       -0.0464
     17 N         140.0415  142.5429  169.8331 N.ar    1  UNL1       -0.2388
     18 H         139.6727  142.9128  168.9986 H       1  UNL1        0.1923
     19 C         143.5131  142.8988  159.8489 C.3     1  UNL1        0.0066
     20 C         142.4511  143.2635  160.8434 C.3     1  UNL1        0.0454
     21 C         141.3941  144.2636  160.4791 C.3     1  UNL1        0.1325
     22 N         141.7686  145.5168  159.7448 N.3     1  UNL1       -0.3148
     23 H         142.7745  145.5244  159.5761 H       1  UNL1        0.1192
     24 H         141.5118  146.3292  160.3056 H       1  UNL1        0.1192
     25 C         139.9627  144.0105  160.8493 C.2     1  UNL1        0.2401
     26 O         139.0013  143.4963  159.8190 O.2     1  UNL1       -0.2734
     27 N         139.4927  144.2715  162.2496 N.am    1  UNL1       -0.2756
     28 C         140.3341  144.7833  163.3810 C.3     1  UNL1        0.0964
     29 C         139.4602  144.8947  164.5951 C.3     1  UNL1        0.0585
     30 C         138.0787  144.4518  164.2140 C.3     1  UNL1        0.1824
     31 F         136.8864  144.4026  165.1228 F       1  UNL1       -0.2354
     32 C         138.0988  144.0666  162.7644 C.3     1  UNL1        0.1286
@<TRIPOS>BOND
     1    20    19    1
     2    20     1    1
     3     1     2   ar
     4     2     3   ar
     5     3     4   ar
     6     4     7    1
     7     7     8   ar
     8     8     9   ar
     9     9    10   ar
    10    10    11   ar
    11    11    13    1
    12    13    14   ar
    13    14    15   ar
    14    15    16   ar
    15    16    17   ar
    16    11    12   ar
    17     4     5   ar
    18     5     6   ar
    19    20    21    1
    20    21    22    1
    21    21    25    1
    22    25    26    2
    23    25    27   am
    24    27    28    1
    25    28    29    1
    26    29    30    1
    27    30    31    1
    28    30    32    1
    29     6     1   ar
    30    32    27    1
    31    12     7   ar
    32    17    13   ar
    33    17    18    1
    34    22    23    1
    35    22    24    1
@<TRIPOS>MOLECULE
*****
 32 35 0 0 0
SMALL
GASTEIGER

@<TRIPOS>ATOM
      1 C         142.5571  140.6935  162.2484 C.ar    1  UNL1       -0.0207
      2 C         143.1347  140.9292  163.6124 C.ar    1  UNL1       -0.0042
      3 C         142.3018  140.6752  164.8337 C.ar    1  UNL1       -0.0003
      4 C         140.8912  140.1855  164.6910 C.ar    1  UNL1       -0.0000
      5 C         140.3135  139.9498  163.3269 C.ar    1  UNL1       -0.0003
      6 C         141.1464  140.2038  162.1056 C.ar    1  UNL1       -0.0042
      7 C         140.0583  139.9314  165.9124 C.ar    1  UNL1        0.0001
      8 C         138.7868  139.1433  165.8025 C.ar    1  UNL1        0.0000
      9 C         137.9538  138.8893  167.0239 C.ar    1  UNL1        0.0001
     10 C         138.3925  139.4235  168.3552 C.ar    1  UNL1        0.0031
     11 C         139.6641  140.2116  168.4651 C.ar    1  UNL1        0.0371
     12 C         140.4969  140.4656  167.2437 C.ar    1  UNL1        0.0031
     13 C         140.1027  140.7457  169.7963 C.ar    1  UNL1        0.1806
     14 N         139.5442  141.9531  170.4894 N.ar    1  UNL1       -0.1084
     15 N         140.2732  142.1198  171.7897 N.ar    1  UNL1       -0.0229
     16 N         141.2823  141.0155  171.9003 N.ar    1  UNL1       -0.0464
     17 N         141.1769  140.1663  170.6683 N.ar    1  UNL1       -0.2388
     18 H         141.7179  139.3687  170.4673 H       1  UNL1        0.1923
     19 C         143.7778  139.8071  160.1331 C.3     1  UNL1        0.0066
     20 C         143.3900  140.9475  161.0269 C.3     1  UNL1        0.0454
     21 C         143.8351  142.3420  160.6994 C.3     1  UNL1        0.1325
     22 N         145.2240  142.7876  161.0495 N.3     1  UNL1       -0.3148
     23 H         145.7234  142.0212  161.5008 H       1  UNL1        0.1192
     24 H         145.1756  143.5833  161.6858 H       1  UNL1        0.1192
     25 C         142.8914  143.2908  160.0219 C.2     1  UNL1        0.2401
     26 O         142.8496  143.3655  158.5243 O.2     1  UNL1       -0.2734
     27 N         141.9896  144.1651  160.8419 N.am    1  UNL1       -0.2756
     28 C         141.9198  144.2009  162.3398 C.3     1  UNL1        0.0964
     29 C         140.8863  145.2149  162.7317 C.3     1  UNL1        0.0585
     30 C         140.3172  145.8058  161.4759 C.3     1  UNL1        0.1824
     31 F         139.2532  146.8604  161.4011 F       1  UNL1       -0.2354
     32 C         140.9991  145.1570  160.3080 C.3     1  UNL1        0.1286
@<TRIPOS>BOND
     1    20    19    1
     2    20     1    1
     3     1     2   ar
     4     2     3   ar
     5     3     4   ar
     6     4     7    1
     7     7     8   ar
     8     8     9   ar
     9     9    10   ar
    10    10    11   ar
    11    11    13    1
    12    13    14   ar
    13    14    15   ar
    14    15    16   ar
    15    16    17   ar
    16    11    12   ar
    17     4     5   ar
    18     5     6   ar
    19    20    21    1
    20    21    22    1
    21    21    25    1
    22    25    26    2
    23    25    27   am
    24    27    28    1
    25    28    29    1
    26    29    30    1
    27    30    31    1
    28    30    32    1
    29     6     1   ar
    30    32    27    1
    31    12     7   ar
    32    17    13   ar
    33    17    18    1
    34    22    23    1
    35    22    24    1
@<TRIPOS>MOLECULE
*****
 32 35 0 0 0
SMALL
GASTEIGER

@<TRIPOS>ATOM
      1 C         142.3201  139.5673  162.1084 C.ar    1  UNL1       -0.0207
      2 C         140.9444  140.1651  162.1094 C.ar    1  UNL1       -0.0042
      3 C         140.0909  140.0809  163.3399 C.ar    1  UNL1       -0.0003
      4 C         140.6131  139.3989  164.5696 C.ar    1  UNL1       -0.0000
      5 C         141.9887  138.8010  164.5687 C.ar    1  UNL1       -0.0003
      6 C         142.8422  138.8852  163.3381 C.ar    1  UNL1       -0.0042
      7 C         139.7595  139.3146  165.8003 C.ar    1  UNL1        0.0001
      8 C         138.4567  138.5723  165.7601 C.ar    1  UNL1        0.0000
      9 C         137.6032  138.4881  166.9907 C.ar    1  UNL1        0.0001
     10 C         138.0524  139.1463  168.2615 C.ar    1  UNL1        0.0031
     11 C         139.3552  139.8887  168.3017 C.ar    1  UNL1        0.0371
     12 C         140.2087  139.9729  167.0711 C.ar    1  UNL1        0.0031
     13 C         139.8045  140.5469  169.5725 C.ar    1  UNL1        0.1806
     14 N         139.8595  142.0238  169.8288 N.ar    1  UNL1       -0.1084
     15 N         140.3666  142.2335  171.2248 N.ar    1  UNL1       -0.0229
     16 N         140.6250  140.8861  171.8313 N.ar    1  UNL1       -0.0464
     17 N         140.2776  139.8438  170.8101 N.ar    1  UNL1       -0.2388
     18 H         140.3478  138.8692  170.9309 H       1  UNL1        0.1923
     19 C         143.3036  138.4627  159.9724 C.3     1  UNL1        0.0066
     20 C         143.1736  139.6515  160.8778 C.3     1  UNL1        0.0454
     21 C         143.8972  140.9246  160.5526 C.3     1  UNL1        0.1325
     22 N         144.1725  141.2867  159.1232 N.3     1  UNL1       -0.3148
     23 H         143.8011  140.5604  158.5109 H       1  UNL1        0.1192
     24 H         145.1792  141.3692  158.9812 H       1  UNL1        0.1192
     25 C         144.3455  141.8355  161.6568 C.2     1  UNL1        0.2401
     26 O         145.6613  141.5986  162.3369 O.2     1  UNL1       -0.2734
     27 N         143.4780  142.9834  162.0808 N.am    1  UNL1       -0.2756
     28 C         142.1441  143.3433  161.4967 C.3     1  UNL1        0.0964
     29 C         141.6338  144.5553  162.2183 C.3     1  UNL1        0.0585
     30 C         142.6522  144.9444  163.2484 C.3     1  UNL1        0.1824
     31 F         142.5491  146.1018  164.1970 F       1  UNL1       -0.2354
     32 C         143.7920  143.9730  163.1635 C.3     1  UNL1        0.1286
@<TRIPOS>BOND
     1    20    19    1
     2    20     1    1
     3     1     2   ar
     4     2     3   ar
     5     3     4   ar
     6     4     7    1
     7     7     8   ar
     8     8     9   ar
     9     9    10   ar
    10    10    11   ar
    11    11    13    1
    12    13    14   ar
    13    14    15   ar
    14    15    16   ar
    15    16    17   ar
    16    11    12   ar
    17     4     5   ar
    18     5     6   ar
    19    20    21    1
    20    21    22    1
    21    21    25    1
    22    25    26    2
    23    25    27   am
    24    27    28    1
    25    28    29    1
    26    29    30    1
    27    30    31    1
    28    30    32    1
    29     6     1   ar
    30    32    27    1
    31    12     7   ar
    32    17    13   ar
    33    17    18    1
    34    22    23    1
    35    22    24    1
@<TRIPOS>MOLECULE
*****
 32 35 0 0 0
SMALL
GASTEIGER

@<TRIPOS>ATOM
      1 C         140.0974  142.5953  161.9388 C.ar    1  UNL1       -0.0207
      2 C         139.4238  143.3492  163.0468 C.ar    1  UNL1       -0.0042
      3 C         139.0597  142.6446  164.3200 C.ar    1  UNL1       -0.0003
      4 C         139.3693  141.1862  164.4851 C.ar    1  UNL1       -0.0000
      5 C         140.0429  140.4324  163.3770 C.ar    1  UNL1       -0.0003
      6 C         140.4070  141.1370  162.1038 C.ar    1  UNL1       -0.0042
      7 C         139.0052  140.4816  165.7583 C.ar    1  UNL1        0.0001
      8 C         138.0688  139.3103  165.7260 C.ar    1  UNL1        0.0000
      9 C         137.7047  138.6057  166.9993 C.ar    1  UNL1        0.0001
     10 C         138.2771  139.0725  168.3048 C.ar    1  UNL1        0.0031
     11 C         139.2136  140.2439  168.3371 C.ar    1  UNL1        0.0371
     12 C         139.5776  140.9484  167.0639 C.ar    1  UNL1        0.0031
     13 C         139.7860  140.7107  169.6426 C.ar    1  UNL1        0.1806
     14 N         139.9924  142.1381  170.0548 N.ar    1  UNL1       -0.1084
     15 N         140.5864  142.1417  171.4322 N.ar    1  UNL1       -0.0229
     16 N         140.7472  140.7165  171.8713 N.ar    1  UNL1       -0.0464
     17 N         140.2525  139.8321  170.7653 N.ar    1  UNL1       -0.2388
     18 H         140.2368  138.8478  170.7746 H       1  UNL1        0.1923
     19 C         139.5010  143.3110  159.5134 C.3     1  UNL1        0.0066
     20 C         140.4615  143.2999  160.6655 C.3     1  UNL1        0.0454
     21 C         141.7860  143.9934  160.5444 C.3     1  UNL1        0.1325
     22 N         141.8415  145.4864  160.4106 N.3     1  UNL1       -0.3148
     23 H         140.8940  145.8641  160.4203 H       1  UNL1        0.1192
     24 H         142.2965  145.7323  159.5314 H       1  UNL1        0.1192
     25 C         143.0551  143.1939  160.5572 C.2     1  UNL1        0.2401
     26 O         143.6378  142.6911  159.2697 O.2     1  UNL1       -0.2734
     27 N         143.7415  142.8972  161.8575 N.am    1  UNL1       -0.2756
     28 C         143.2801  143.3310  163.2172 C.3     1  UNL1        0.0964
     29 C         144.2633  142.8165  164.2265 C.3     1  UNL1        0.0585
     30 C         145.3324  142.0646  163.4905 C.3     1  UNL1        0.1824
     31 F         146.5162  141.3826  164.1099 F       1  UNL1       -0.2354
     32 C         145.0099  142.1145  162.0264 C.3     1  UNL1        0.1286
@<TRIPOS>BOND
     1    20    19    1
     2    20     1    1
     3     1     2   ar
     4     2     3   ar
     5     3     4   ar
     6     4     7    1
     7     7     8   ar
     8     8     9   ar
     9     9    10   ar
    10    10    11   ar
    11    11    13    1
    12    13    14   ar
    13    14    15   ar
    14    15    16   ar
    15    16    17   ar
    16    11    12   ar
    17     4     5   ar
    18     5     6   ar
    19    20    21    1
    20    21    22    1
    21    21    25    1
    22    25    26    2
    23    25    27   am
    24    27    28    1
    25    28    29    1
    26    29    30    1
    27    30    31    1
    28    30    32    1
    29     6     1   ar
    30    32    27    1
    31    12     7   ar
    32    17    13   ar
    33    17    18    1
    34    22    23    1
    35    22    24    1
@<TRIPOS>MOLECULE
*****
 32 35 0 0 0
SMALL
GASTEIGER

@<TRIPOS>ATOM
      1 C         142.2048  143.4530  164.1373 C.ar    1  UNL1       -0.0207
      2 C         140.8605  143.3695  164.7974 C.ar    1  UNL1       -0.0042
      3 C         140.7471  142.8701  166.2073 C.ar    1  UNL1       -0.0003
      4 C         141.9780  142.4543  166.9570 C.ar    1  UNL1       -0.0000
      5 C         143.3223  142.5378  166.2968 C.ar    1  UNL1       -0.0003
      6 C         143.4357  143.0371  164.8870 C.ar    1  UNL1       -0.0042
      7 C         141.8645  141.9549  168.3669 C.ar    1  UNL1        0.0001
      8 C         140.9627  142.6546  169.3401 C.ar    1  UNL1        0.0000
      9 C         140.8492  142.1552  170.7500 C.ar    1  UNL1        0.0001
     10 C         141.6376  140.9561  171.1867 C.ar    1  UNL1        0.0031
     11 C         142.5394  140.2564  170.2134 C.ar    1  UNL1        0.0371
     12 C         142.6528  140.7558  168.8036 C.ar    1  UNL1        0.0031
     13 C         143.3277  139.0573  170.6501 C.ar    1  UNL1        0.1806
     14 N         143.1744  137.6615  170.1228 N.ar    1  UNL1       -0.1084
     15 N         144.1597  136.7850  170.8375 N.ar    1  UNL1       -0.0229
     16 N         144.9221  137.6392  171.8066 N.ar    1  UNL1       -0.0464
     17 N         144.4079  139.0435  171.6908 N.ar    1  UNL1       -0.2388
     18 H         144.7239  139.8199  172.2071 H       1  UNL1        0.1923
     19 C         141.3730  145.0033  162.2255 C.3     1  UNL1        0.0066
     20 C         142.3183  143.9523  162.7273 C.3     1  UNL1        0.0454
     21 C         143.3771  143.4007  161.8193 C.3     1  UNL1        0.1325
     22 N         144.7842  143.9126  161.9101 N.3     1  UNL1       -0.3148
     23 H         144.8401  144.6264  162.6366 H       1  UNL1        0.1192
     24 H         145.0574  144.3169  161.0144 H       1  UNL1        0.1192
     25 C         143.0289  142.3372  160.8204 C.2     1  UNL1        0.2401
     26 O         142.3961  142.7140  159.5136 O.2     1  UNL1       -0.2734
     27 N         143.3135  140.8970  161.1282 N.am    1  UNL1       -0.2756
     28 C         143.9390  140.3712  162.3861 C.3     1  UNL1        0.0964
     29 C         144.0346  138.8789  162.2676 C.3     1  UNL1        0.0585
     30 C         143.4683  138.4825  160.9364 C.3     1  UNL1        0.1824
     31 F         143.3656  137.0843  160.4030 F       1  UNL1       -0.2354
     32 C         143.0226  139.7297  160.2323 C.3     1  UNL1        0.1286
@<TRIPOS>BOND
     1    20    19    1
     2    20     1    1
     3     1     2   ar
     4     2     3   ar
     5     3     4   ar
     6     4     7    1
     7     7     8   ar
     8     8     9   ar
     9     9    10   ar
    10    10    11   ar
    11    11    13    1
    12    13    14   ar
    13    14    15   ar
    14    15    16   ar
    15    16    17   ar
    16    11    12   ar
    17     4     5   ar
    18     5     6   ar
    19    20    21    1
    20    21    22    1
    21    21    25    1
    22    25    26    2
    23    25    27   am
    24    27    28    1
    25    28    29    1
    26    29    30    1
    27    30    31    1
    28    30    32    1
    29     6     1   ar
    30    32    27    1
    31    12     7   ar
    32    17    13   ar
    33    17    18    1
    34    22    23    1
    35    22    24    1
@<TRIPOS>MOLECULE
*****
 32 35 0 0 0
SMALL
GASTEIGER

@<TRIPOS>ATOM
      1 C         140.3090  144.1389  163.4448 C.ar    1  UNL1       -0.0207
      2 C         139.2846  144.0723  164.5385 C.ar    1  UNL1       -0.0042
      3 C         139.6324  143.4422  165.8545 C.ar    1  UNL1       -0.0003
      4 C         141.0046  142.8786  166.0768 C.ar    1  UNL1       -0.0000
      5 C         142.0290  142.9452  164.9832 C.ar    1  UNL1       -0.0003
      6 C         141.6812  143.5754  163.6672 C.ar    1  UNL1       -0.0042
      7 C         141.3524  142.2485  167.3929 C.ar    1  UNL1        0.0001
      8 C         142.7457  142.3662  167.9359 C.ar    1  UNL1        0.0000
      9 C         143.0935  141.7360  169.2520 C.ar    1  UNL1        0.0001
     10 C         142.0479  140.9882  170.0250 C.ar    1  UNL1        0.0031
     11 C         140.6546  140.8705  169.4819 C.ar    1  UNL1        0.0371
     12 C         140.3069  141.5006  168.1659 C.ar    1  UNL1        0.0031
     13 C         139.6091  140.1226  170.2549 C.ar    1  UNL1        0.1806
     14 N         138.1423  140.0827  169.9434 N.ar    1  UNL1       -0.1084
     15 N         137.4734  139.2187  170.9711 N.ar    1  UNL1       -0.0229
     16 N         138.5268  138.7247  171.9179 N.ar    1  UNL1       -0.0464
     17 N         139.8467  139.2834  171.4753 N.ar    1  UNL1       -0.2388
     18 H         140.7162  139.1267  171.9095 H       1  UNL1        0.1923
     19 C         139.9829  146.2618  161.9829 C.3     1  UNL1        0.0066
     20 C         139.9612  144.7691  162.1287 C.3     1  UNL1        0.0454
     21 C         139.5917  143.9064  160.9585 C.3     1  UNL1        0.1325
     22 N         139.7007  144.4476  159.5638 N.3     1  UNL1       -0.3148
     23 H         140.0393  145.4092  159.5977 H       1  UNL1        0.1192
     24 H         138.7836  144.4257  159.1179 H       1  UNL1        0.1192
     25 C         139.1131  142.5027  161.1830 C.2     1  UNL1        0.2401
     26 O         137.6693  142.2436  161.4969 O.2     1  UNL1       -0.2734
     27 N         140.0783  141.3580  161.0937 N.am    1  UNL1       -0.2756
     28 C         141.5435  141.4618  160.7898 C.3     1  UNL1        0.0964
     29 C         142.1186  140.0764  160.8009 C.3     1  UNL1        0.0585
     30 C         141.0087  139.1164  161.1117 C.3     1  UNL1        0.1824
     31 F         141.1372  137.6260  161.2221 F       1  UNL1       -0.2354
     32 C         139.7478  139.9084  161.2927 C.3     1  UNL1        0.1286
@<TRIPOS>BOND
     1    20    19    1
     2    20     1    1
     3     1     2   ar
     4     2     3   ar
     5     3     4   ar
     6     4     7    1
     7     7     8   ar
     8     8     9   ar
     9     9    10   ar
    10    10    11   ar
    11    11    13    1
    12    13    14   ar
    13    14    15   ar
    14    15    16   ar
    15    16    17   ar
    16    11    12   ar
    17     4     5   ar
    18     5     6   ar
    19    20    21    1
    20    21    22    1
    21    21    25    1
    22    25    26    2
    23    25    27   am
    24    27    28    1
    25    28    29    1
    26    29    30    1
    27    30    31    1
    28    30    32    1
    29     6     1   ar
    30    32    27    1
    31    12     7   ar
    32    17    13   ar
    33    17    18    1
    34    22    23    1
    35    22    24    1
@<TRIPOS>MOLECULE
*****
 32 35 0 0 0
SMALL
GASTEIGER

@<TRIPOS>ATOM
      1 C         139.7881  139.0877  164.0211 C.ar    1  UNL1       -0.0207
      2 C         140.9819  139.9405  164.3333 C.ar    1  UNL1       -0.0042
      3 C         141.1794  140.4752  165.7207 C.ar    1  UNL1       -0.0003
      4 C         140.1830  140.1572  166.7959 C.ar    1  UNL1       -0.0000
      5 C         138.9892  139.3044  166.4837 C.ar    1  UNL1       -0.0003
      6 C         138.7918  138.7696  165.0963 C.ar    1  UNL1       -0.0042
      7 C         140.3804  140.6920  168.1834 C.ar    1  UNL1        0.0001
      8 C         139.3314  140.4647  169.2312 C.ar    1  UNL1        0.0000
      9 C         139.5288  140.9996  170.6187 C.ar    1  UNL1        0.0001
     10 C         140.7754  141.7616  170.9583 C.ar    1  UNL1        0.0031
     11 C         141.8245  141.9889  169.9105 C.ar    1  UNL1        0.0371
     12 C         141.6270  141.4541  168.5231 C.ar    1  UNL1        0.0031
     13 C         143.0710  142.7510  170.2502 C.ar    1  UNL1        0.1806
     14 N         144.4461  142.4739  169.7189 N.ar    1  UNL1       -0.1084
     15 N         145.3863  143.4756  170.3211 N.ar    1  UNL1       -0.0229
     16 N         144.5922  144.3718  171.2247 N.ar    1  UNL1       -0.0464
     17 N         143.1613  143.9239  171.1808 N.ar    1  UNL1       -0.2388
     18 H         142.4128  144.3287  171.6759 H       1  UNL1        0.1923
     19 C         138.2044  138.3291  162.1063 C.3     1  UNL1        0.0066
     20 C         139.5907  138.5529  162.6336 C.3     1  UNL1        0.0454
     21 C         140.7796  138.2418  161.7735 C.3     1  UNL1        0.1325
     22 N         141.6901  137.1058  162.1349 N.3     1  UNL1       -0.3148
     23 H         141.3533  136.6581  162.9872 H       1  UNL1        0.1192
     24 H         142.6336  137.4617  162.2877 H       1  UNL1        0.1192
     25 C         141.0580  139.0667  160.5520 C.2     1  UNL1        0.2401
     26 O         140.1547  138.9683  159.3585 O.2     1  UNL1       -0.2734
     27 N         142.2398  139.9901  160.5240 N.am    1  UNL1       -0.2756
     28 C         143.2263  140.1936  161.6355 C.3     1  UNL1        0.0964
     29 C         144.2387  141.2014  161.1780 C.3     1  UNL1        0.0585
     30 C         143.8779  141.6209  159.7838 C.3     1  UNL1        0.1824
     31 F         144.6219  142.6144  158.9416 F       1  UNL1       -0.2354
     32 C         142.6425  140.8722  159.3796 C.3     1  UNL1        0.1286
@<TRIPOS>BOND
     1    20    19    1
     2    20     1    1
     3     1     2   ar
     4     2     3   ar
     5     3     4   ar
     6     4     7    1
     7     7     8   ar
     8     8     9   ar
     9     9    10   ar
    10    10    11   ar
    11    11    13    1
    12    13    14   ar
    13    14    15   ar
    14    15    16   ar
    15    16    17   ar
    16    11    12   ar
    17     4     5   ar
    18     5     6   ar
    19    20    21    1
    20    21    22    1
    21    21    25    1
    22    25    26    2
    23    25    27   am
    24    27    28    1
    25    28    29    1
    26    29    30    1
    27    30    31    1
    28    30    32    1
    29     6     1   ar
    30    32    27    1
    31    12     7   ar
    32    17    13   ar
    33    17    18    1
    34    22    23    1
    35    22    24    1
@<TRIPOS>MOLECULE
*****
 32 35 0 0 0
SMALL
GASTEIGER

@<TRIPOS>ATOM
      1 C         140.8671  143.3039  162.2044 C.ar    1  UNL1       -0.0207
      2 C         139.9330  142.1374  162.0753 C.ar    1  UNL1       -0.0042
      3 C         139.5015  141.3834  163.2981 C.ar    1  UNL1       -0.0003
      4 C         140.0040  141.7958  164.6499 C.ar    1  UNL1       -0.0000
      5 C         140.9381  142.9623  164.7789 C.ar    1  UNL1       -0.0003
      6 C         141.3697  143.7163  163.5562 C.ar    1  UNL1       -0.0042
      7 C         139.5724  141.0417  165.8727 C.ar    1  UNL1        0.0001
      8 C         138.6185  139.8910  165.7464 C.ar    1  UNL1        0.0000
      9 C         138.1869  139.1369  166.9692 C.ar    1  UNL1        0.0001
     10 C         138.7093  139.5336  168.3182 C.ar    1  UNL1        0.0031
     11 C         139.6632  140.6843  168.4444 C.ar    1  UNL1        0.0371
     12 C         140.0948  141.4383  167.2217 C.ar    1  UNL1        0.0031
     13 C         140.1856  141.0809  169.7934 C.ar    1  UNL1        0.1806
     14 N         139.5806  142.1055  170.7068 N.ar    1  UNL1       -0.1084
     15 N         140.4258  142.1804  171.9438 N.ar    1  UNL1       -0.0229
     16 N         141.5531  141.2022  171.7949 N.ar    1  UNL1       -0.0464
     17 N         141.4047  140.5227  170.4659 N.ar    1  UNL1       -0.2388
     18 H         142.0024  139.8317  170.0993 H       1  UNL1        0.1923
     19 C         140.5193  145.2554  160.5249 C.3     1  UNL1        0.0066
     20 C         141.2987  144.0580  160.9816 C.3     1  UNL1        0.0454
     21 C         142.5097  143.6146  160.2155 C.3     1  UNL1        0.1325
     22 N         142.7181  144.0824  158.8056 N.3     1  UNL1       -0.3148
     23 H         141.9460  144.6898  158.5313 H       1  UNL1        0.1192
     24 H         142.7547  143.2762  158.1818 H       1  UNL1        0.1192
     25 C         143.5123  142.7034  160.8593 C.2     1  UNL1        0.2401
     26 O         144.6478  143.2787  161.6529 O.2     1  UNL1       -0.2734
     27 N         143.3795  141.2168  160.7097 N.am    1  UNL1       -0.2756
     28 C         142.3027  140.4998  159.9504 C.3     1  UNL1        0.0964
     29 C         142.5578  139.0261  160.0644 C.3     1  UNL1        0.0585
     30 C         143.7922  138.8322  160.8942 C.3     1  UNL1        0.1824
     31 F         144.4103  137.5156  161.2609 F       1  UNL1       -0.2354
     32 C         144.3000  140.1861  161.2930 C.3     1  UNL1        0.1286
@<TRIPOS>BOND
     1    20    19    1
     2    20     1    1
     3     1     2   ar
     4     2     3   ar
     5     3     4   ar
     6     4     7    1
     7     7     8   ar
     8     8     9   ar
     9     9    10   ar
    10    10    11   ar
    11    11    13    1
    12    13    14   ar
    13    14    15   ar
    14    15    16   ar
    15    16    17   ar
    16    11    12   ar
    17     4     5   ar
    18     5     6   ar
    19    20    21    1
    20    21    22    1
    21    21    25    1
    22    25    26    2
    23    25    27   am
    24    27    28    1
    25    28    29    1
    26    29    30    1
    27    30    31    1
    28    30    32    1
    29     6     1   ar
    30    32    27    1
    31    12     7   ar
    32    17    13   ar
    33    17    18    1
    34    22    23    1
    35    22    24    1
